
#######################################################################
#
#                 Cambridge Crystallographic Data Centre
#                                CCDC 
#
#######################################################################
#
# If this CIF has been generated from an entry in the Cambridge 
# Structural Database, then it will include bibliographic, chemical, 
# crystal, experimental, refinement or atomic coordinate data resulting 
# from the CCDC's data processing and validation procedures.
#
#######################################################################

data_YOFVUL
_symmetry_cell_setting           triclinic
_symmetry_space_group_name_H-M   'P -1'
_symmetry_Int_Tables_number      2
_space_group_name_Hall           '-P 1'
loop_
_symmetry_equiv_pos_site_id
_symmetry_equiv_pos_as_xyz
1 x,y,z
2 -x,-y,-z
_cell_length_a                   6.9130
_cell_length_b                   7.3511
_cell_length_c                   10.1419
_cell_angle_alpha                78.7900
_cell_angle_beta                 73.0200
_cell_angle_gamma                41.5600
_cell_volume                     326.772
loop_
_atom_site_label
_atom_site_type_symbol
_atom_site_fract_x
_atom_site_fract_y
_atom_site_fract_z
C1 C -0.0652 0.6524 0.2529
C2 C -0.0124 0.6839 0.3625
C3 C 0.2781 0.5421 0.3565
C4 C 0.4998 0.3809 0.2396
C5 C 0.4301 0.3580 0.1335
C6 C -0.3695 0.7976 0.2431
C7 C 0.8136 0.2339 0.2221
Cu1 Cu 0.0000 0.5000 0.0000
H1 H -0.1685 0.7913 0.4380
H2 H 0.2902 0.5720 0.4300
H3 H 0.5857 0.2556 0.0633
N1 N 0.1526 0.4904 0.1409
O1 O -0.3769 0.7492 0.1331
O2 O -0.5868 0.9494 0.3414
O3 O 0.8757 0.2203 0.3365
O4 O 0.9841 0.1455 0.1096
C1A C 0.0652 0.3476 -0.2529
C2A C 0.0124 0.3161 -0.3625
C3A C -0.2781 0.4579 -0.3565
C4A C -0.4998 0.6191 -0.2396
C5A C -0.4301 0.6420 -0.1335
C6A C 0.3695 0.2024 -0.2431
C7A C -0.8136 0.7661 -0.2221
Cu1_2 Cu 1.0000 0.5000 0.0000
Cu1_3 Cu -1.0000 0.5000 0.0000
H1A H 0.1685 0.2087 -0.4380
H2A H -0.2902 0.4280 -0.4300
H3A H -0.5857 0.7444 -0.0633
N1A N -0.1526 0.5096 -0.1409
O1A O 0.3769 0.2508 -0.1331
O2A O 0.5868 0.0506 -0.3414
O3A O -0.8757 0.7797 -0.3365
O4A O -0.9841 0.8545 -0.1096
O4_2 O -0.0159 0.1455 0.1096
O4A_2 O 0.0159 0.8545 -0.1096
loop_
_geom_bond_atom_site_label_1
_geom_bond_atom_site_label_2
_geom_bond_site_symmetry_1
_geom_bond_site_symmetry_2
C1 C2 1_555 1_555
C2 C3 1_555 1_555
C3 C4 1_555 1_555
C4 C5 1_555 1_555
C5 H3 1_555 1_555
C6 C1 1_555 1_555
C7 C4 1_555 1_555
Cu1 N1 1_555 1_555
H1 C2 1_555 1_555
H2 C3 1_555 1_555
N1 C1 1_555 1_555
O1 C6 1_555 1_555
O2 C6 1_555 1_555
O3 C7 1_555 1_555
O4 C7 1_555 1_555
C1A C2A 1_555 1_555
C2A C3A 1_555 1_555
C3A C4A 1_555 1_555
C4A C5A 1_555 1_555
C5A H3A 1_555 1_555
C6A C1A 1_555 1_555
C7A C4A 1_555 1_555
Cu1_2 O4 1_555 1_555
Cu1_3 O4A 1_555 1_555
H1A C2A 1_555 1_555
H2A C3A 1_555 1_555
N1A Cu1 1_555 1_555
O1A Cu1 1_555 1_555
O2A C6A 1_555 1_555
O3A C7A 1_555 1_555
O4A C7A 1_555 1_555
O4_2 Cu1 1_555 1_555
O4A_2 Cu1 1_555 1_555
C5 N1 1_555 1_555
Cu1 O1 1_555 1_555
C1A N1A 1_555 1_555
C5A N1A 1_555 1_555
C6A O1A 1_555 1_555

#END
