
#######################################################################
#
#                 Cambridge Crystallographic Data Centre
#                                CCDC 
#
#######################################################################
#
# If this CIF has been generated from an entry in the Cambridge 
# Structural Database, then it will include bibliographic, chemical, 
# crystal, experimental, refinement or atomic coordinate data resulting 
# from the CCDC's data processing and validation procedures.
#
#######################################################################

data_YOFXIB
_symmetry_cell_setting           hexagonal
_symmetry_space_group_name_H-M   'P -6 2 c'
_symmetry_Int_Tables_number      190
_space_group_name_Hall           "P -6c -2'c"
loop_
_symmetry_equiv_pos_site_id
_symmetry_equiv_pos_as_xyz
1 x,y,z
2 -y,x-y,z
3 -x+y,-x,z
4 x,y,1/2-z
5 -y,x-y,1/2-z
6 -x+y,-x,1/2-z
7 y,x,-z
8 x-y,-y,-z
9 -x,-x+y,-z
10 y,x,1/2+z
11 x-y,-y,1/2+z
12 -x,-x+y,1/2+z
_cell_length_a                   13.8529(8)
_cell_length_b                   13.8529(8)
_cell_length_c                   7.4159(8)
_cell_angle_alpha                90
_cell_angle_beta                 90
_cell_angle_gamma                120
_cell_volume                     1232.47
loop_
_atom_site_label
_atom_site_type_symbol
_atom_site_fract_x
_atom_site_fract_y
_atom_site_fract_z
Zn1 Zn 0.70482(9) 0.20586(10) 0.7500
Zn2 Zn 1.0000 0.0000 0.7500
O1 O 0.6666 0.3333 0.7500
C1 C 0.8750(9) 0.1253(10) 0.7500
C2 C 0.9619(9) 0.3245(9) 0.7500
N1 N 0.8817(10) 0.0356(10) 0.7500
N2 N 0.7766(10) -0.0521(10) 0.7500
N3 N 0.7075(12) -0.0129(10) 0.699(2)
N4 N 0.7679(7) 0.1000(7) 0.7500
N5 N 0.9651(8) 0.2288(8) 0.7500
H1 H 1.0297 0.2340 0.7500
N6 N 0.8697(7) 0.3323(7) 0.7500
N7 N 0.9109(7) 0.4449(7) 0.7500
N8 N 1.0180(10) 0.4981(9) 0.7500
N9 N 1.0573(9) 0.4275(9) 0.7500
O2 O 0.7042(6) 0.2106(7) 0.4598(8)
Zn1A Zn 0.79414(10) -0.50104(13) 0.7500
Zn1B Zn 1.50104(13) 0.29518(9) 0.7500
Zn1A_2 Zn 0.79414(10) 0.49896(13) 0.7500
Zn1B_2 Zn 0.50104(13) 0.29518(9) 0.7500
Zn1B_3 Zn 0.50104(13) -0.70482(9) 0.7500
Zn1_2 Zn 1.70482(9) 0.20586(10) 0.7500
O1_2 O 0.6666 -0.6667 0.7500
O1_3 O 1.6666 0.3333 0.7500
C1A C 0.8747(10) -0.2503(13) 0.7500
C1B C 1.2503(13) 0.1250(9) 0.7500
C2A C 0.6755(9) -0.3626(13) 0.7500
C2B C 1.3626(13) 0.0381(9) 0.7500
N1A N 0.9644(10) -0.1539(14) 0.7500
N1B N 1.1539(14) 0.1183(10) 0.7500
N2A N 1.0521(10) -0.1713(14) 0.7500
N2B N 1.1713(14) 0.2234(10) 0.7500
N3C N 0.7075(12) -0.0129(10) 0.801(2)
N3A N 1.0129(10) -0.2796(16) 0.699(2)
N3D N 1.0129(10) -0.2796(16) 0.801(2)
N3B N 1.2796(16) 0.2925(12) 0.699(2)
N3E N 1.2796(16) 0.2925(12) 0.801(2)
N4A N 0.9000(7) -0.3321(10) 0.7500
N4B N 1.3321(10) 0.2321(7) 0.7500
N5A N 0.7712(8) -0.2637(11) 0.7500
N5B N 1.2637(11) 0.0349(8) 0.7500
H1A H 0.7660 -0.2043 0.7500
H1B H 1.2043 -0.0297 0.7500
N6A N 0.6677(7) -0.4626(10) 0.7500
N6B N 1.4626(10) 0.1303(7) 0.7500
N7A N 0.5551(7) -0.5340(10) 0.7500
N7B N 1.5340(10) 0.0891(7) 0.7500
N7B_2 N 0.5340(10) 0.0891(7) 0.7500
N7_2 N 0.9109(7) -0.5551(7) 0.7500
N7A_2 N 1.5551(7) 0.4660(10) 0.7500
N8A N 0.5019(9) -0.4801(13) 0.7500
N8B N 1.4801(13) -0.0180(10) 0.7500
N9A N 0.5725(9) -0.3702(13) 0.7500
N9B N 1.3702(13) -0.0573(9) 0.7500
O2C O 0.7042(6) 0.2106(7) 1.0402(8)
O2A O 0.7894(7) -0.5064(9) 0.4598(8)
O2D O 0.7894(7) -0.5064(9) 1.0402(8)
O2B O 1.5064(9) 0.2958(6) 0.4598(8)
O2E O 1.5064(9) 0.2958(6) 1.0402(8)
loop_
_geom_bond_atom_site_label_1
_geom_bond_atom_site_label_2
_geom_bond_site_symmetry_1
_geom_bond_site_symmetry_2
Zn1 O1 1_555 1_555
Zn2 N1 1_555 1_555
O1 Zn1A_2 1_555 1_555
C1 N1 1_555 1_555
C2 N5 1_555 1_555
N1 N2 1_555 1_555
N2 N3 1_555 1_555
N3 N4 1_555 1_555
N4 Zn1 1_555 1_555
N5 C1 1_555 1_555
H1 N5 1_555 1_555
N6 Zn1 1_555 1_555
N7 N6 1_555 1_555
N8 N7 1_555 1_555
N9 C2 1_555 1_555
O2 Zn1 1_555 1_555
Zn1A O1_2 1_555 1_555
Zn1B O1_3 1_555 1_555
Zn1A_2 N7 1_555 1_555
Zn1B_2 O1 1_555 1_555
Zn1B_3 O1_2 1_555 1_555
Zn1_2 O1_3 1_555 1_555
C1A N1A 1_555 1_555
C1B N1B 1_555 1_555
C2A N5A 1_555 1_555
C2B N5B 1_555 1_555
N1A Zn2 1_555 1_555
N1B Zn2 1_555 1_555
N2A N1A 1_555 1_555
N2B N1B 1_555 1_555
N3C N2 1_555 1_555
N3A N2A 1_555 1_555
N3D N2A 1_555 1_555
N3B N2B 1_555 1_555
N3E N2B 1_555 1_555
N4A Zn1A 1_555 1_555
N4B Zn1B 1_555 1_555
N5A C1A 1_555 1_555
N5B C1B 1_555 1_555
H1A N5A 1_555 1_555
H1B N5B 1_555 1_555
N6A Zn1A 1_555 1_555
N6B Zn1B 1_555 1_555
N7A Zn1B_3 1_555 1_555
N7B Zn1_2 1_555 1_555
N7B_2 Zn1 1_555 1_555
N7_2 Zn1A 1_555 1_555
N7A_2 Zn1B 1_555 1_555
N8A N7A 1_555 1_555
N8B N7B 1_555 1_555
N9A C2A 1_555 1_555
N9B C2B 1_555 1_555
O2C Zn1 1_555 1_555
O2A Zn1A 1_555 1_555
O2D Zn1A 1_555 1_555
O2B Zn1B 1_555 1_555
O2E Zn1B 1_555 1_555
C1 N4 1_555 1_555
C2 N6 1_555 1_555
N3 N3C 1_555 1_555
N4 N3C 1_555 1_555
N8 N9 1_555 1_555
C1A N4A 1_555 1_555
C1B N4B 1_555 1_555
C2A N6A 1_555 1_555
C2B N6B 1_555 1_555
N3A N3D 1_555 1_555
N3A N4A 1_555 1_555
N3D N4A 1_555 1_555
N3B N3E 1_555 1_555
N3B N4B 1_555 1_555
N3E N4B 1_555 1_555
N6A N7A 1_555 1_555
N6B N7B 1_555 1_555
N8A N9A 1_555 1_555
N8B N9B 1_555 1_555

#END
