
#######################################################################
#
#                 Cambridge Crystallographic Data Centre
#                                CCDC 
#
#######################################################################
#
# If this CIF has been generated from an entry in the Cambridge 
# Structural Database, then it will include bibliographic, chemical, 
# crystal, experimental, refinement or atomic coordinate data resulting 
# from the CCDC's data processing and validation procedures.
#
#######################################################################

data_YOFXEY
_symmetry_cell_setting           tetragonal
_symmetry_space_group_name_H-M   'I 41/a'
_symmetry_Int_Tables_number      88
_space_group_name_Hall           '-I 4ad'
loop_
_symmetry_equiv_pos_site_id
_symmetry_equiv_pos_as_xyz
1 x,y,z
2 1/2-x,-y,1/2+z
3 3/4-y,1/4+x,1/4+z
4 3/4+y,3/4-x,3/4+z
5 1/2+x,1/2+y,1/2+z
6 -x,1/2-y,z
7 1/4-y,3/4+x,3/4+z
8 1/4+y,1/4-x,1/4+z
9 -x,-y,-z
10 1/2+x,y,1/2-z
11 1/4+y,3/4-x,3/4-z
12 1/4-y,1/4+x,1/4-z
13 1/2-x,1/2-y,1/2-z
14 x,1/2+y,-z
15 3/4+y,1/4-x,1/4-z
16 3/4-y,3/4+x,3/4-z
_cell_length_a                   36.102(6)
_cell_length_b                   36.102(6)
_cell_length_c                   9.930(3)
_cell_angle_alpha                90
_cell_angle_beta                 90
_cell_angle_gamma                90
_cell_volume                     12942.3
loop_
_atom_site_label
_atom_site_type_symbol
_atom_site_fract_x
_atom_site_fract_y
_atom_site_fract_z
Cu1 Cu 1.0000 0.5000 0.0000
N1 N 0.94733(13) 0.46218(13) 0.0567(5)
N2 N 0.94721(12) 0.45093(12) 0.1909(5)
C1 C 0.91861(16) 0.44525(16) 0.0035(7)
H1 H 0.9120 0.4474 -0.0867
C2 C 0.91833(16) 0.42875(16) 0.2092(7)
H2 H 0.9120 0.4178 0.2908
N3 N 0.89948(13) 0.42423(14) 0.0939(6)
N4 N 1.02780(12) 0.46246(13) 0.1076(5)
N5 N 1.01507(12) 0.44934(12) 0.2292(5)
C3 C 1.05906(16) 0.44545(16) 0.0870(7)
H3 H 1.0738 0.4497 0.0118
C4 C 1.03989(17) 0.42449(15) 0.2727(7)
H4 H 1.0379 0.4113 0.3529
N6 N 1.06808(13) 0.42116(13) 0.1849(5)
N7 N 0.98848(14) 0.52545(13) 0.1785(6)
N8 N 0.97929(13) 0.50520(13) 0.2912(5)
C5 C 0.9849(2) 0.56017(18) 0.2198(8)
H5 H 0.9895 0.5804 0.1641
C6 C 0.97025(18) 0.52877(18) 0.3892(7)
H6 H 0.9623 0.5216 0.4743
N9 N 0.97402(19) 0.56394(16) 0.3502(7)
B1 B 0.97770(18) 0.46249(18) 0.2889(7)
H7 H 0.9735 0.4523 0.3791
Mn1 Mn 0.86414(2) 0.37165(2) 0.07845(10)
N10 N 0.87460(14) 0.36931(14) -0.1184(6)
C7 C 0.90623(19) 0.36215(18) -0.1733(8)
H8 H 0.9081 0.3628 -0.2667
C8 C 0.93893(19) 0.35309(18) -0.0954(10)
C9 C 0.9728(2) 0.3511(2) -0.1641(11)
H9 H 0.9735 0.3547 -0.2568
C10 C 1.0052(2) 0.3439(2) -0.0953(16)
H10 H 1.0275 0.3427 -0.1415
C11 C 1.0045(2) 0.3386(2) 0.0382(15)
H11 H 1.0266 0.3344 0.0837
C12 C 0.9716(2) 0.3392(2) 0.1101(11)
H12 H 0.9718 0.3348 0.2024
C13 C 0.93872(17) 0.34638(18) 0.0447(10)
O1 O 0.90745(12) 0.34547(12) 0.1204(5)
N11 N 0.82098(13) 0.40082(13) 0.0146(5)
C14 C 0.79459(17) 0.41333(17) 0.0904(7)
H13 H 0.7765 0.4278 0.0496
C15 C 0.79104(17) 0.40658(17) 0.2336(7)
C16 C 0.7579(2) 0.4178(2) 0.2979(9)
H14 H 0.7404 0.4311 0.2492
C17 C 0.7511(2) 0.4096(3) 0.4312(9)
H15 H 0.7291 0.4173 0.4711
C18 C 0.7768(2) 0.3900(3) 0.5059(9)
H16 H 0.7718 0.3840 0.5952
C19 C 0.8096(2) 0.3795(2) 0.4474(7)
H17 H 0.8270 0.3668 0.4988
C20 C 0.81771(17) 0.38748(18) 0.3129(7)
O2 O 0.84966(12) 0.37578(12) 0.2614(5)
C21 C 0.84233(19) 0.37977(19) -0.2019(7)
H18 H 0.8260 0.3587 -0.2136
H19 H 0.8505 0.3880 -0.2901
C22 C 0.82247(19) 0.41044(19) -0.1304(7)
H20 H 0.8356 0.4336 -0.1430
H21 H 0.7976 0.4132 -0.1661
N1H N 1.05267(13) 0.53782(13) -0.0567(5)
N2H N 1.05279(12) 0.54907(12) -0.1909(5)
C1H C 1.08139(16) 0.55475(16) -0.0035(7)
H1H H 1.0880 0.5526 0.0867
C2H C 1.08167(16) 0.57125(16) -0.2092(7)
H2H H 1.0880 0.5822 -0.2908
N3H N 1.10052(13) 0.57577(14) -0.0939(6)
N4H N 0.97220(12) 0.53754(13) -0.1076(5)
N5H N 0.98493(12) 0.55066(12) -0.2292(5)
C3H C 0.94094(16) 0.55455(16) -0.0870(7)
H3H H 0.9262 0.5503 -0.0118
C4H C 0.96011(17) 0.57551(15) -0.2727(7)
H4H H 0.9621 0.5887 -0.3529
N6H N 0.93192(13) 0.57884(13) -0.1849(5)
N7H N 1.01152(14) 0.47455(13) -0.1785(6)
N8H N 1.02071(13) 0.49480(13) -0.2912(5)
C5H C 1.0151(2) 0.43983(18) -0.2198(8)
H5H H 1.0105 0.4196 -0.1641
C6H C 1.02975(18) 0.47123(18) -0.3892(7)
H6H H 1.0377 0.4784 -0.4743
N9H N 1.02598(19) 0.43606(16) -0.3502(7)
B1H B 1.02230(18) 0.53751(18) -0.2889(7)
H7H H 1.0265 0.5477 -0.3791
Mn1H Mn 1.13586(2) 0.62835(2) -0.07845(10)
N10H N 1.12540(14) 0.63069(14) 0.1184(6)
C7H C 1.09377(19) 0.63785(18) 0.1733(8)
H8H H 1.0919 0.6372 0.2667
C8H C 1.06107(19) 0.64691(18) 0.0954(10)
C9H C 1.0272(2) 0.6489(2) 0.1641(11)
H9H H 1.0265 0.6453 0.2568
C10H C 0.9948(2) 0.6561(2) 0.0953(16)
H10H H 0.9725 0.6573 0.1415
C11H C 0.9955(2) 0.6614(2) -0.0382(15)
H11H H 0.9734 0.6656 -0.0837
C12H C 1.0284(2) 0.6608(2) -0.1101(11)
H12H H 1.0282 0.6652 -0.2024
C13H C 1.06128(17) 0.65362(18) -0.0447(10)
O1H O 1.09255(12) 0.65453(12) -0.1204(5)
N11H N 1.17902(13) 0.59918(13) -0.0146(5)
C14H C 1.20541(17) 0.58667(17) -0.0904(7)
H13H H 1.2235 0.5722 -0.0496
C15H C 1.20896(17) 0.59342(17) -0.2336(7)
C16H C 1.2421(2) 0.5822(2) -0.2979(9)
H14H H 1.2596 0.5689 -0.2492
C17H C 1.2489(2) 0.5904(3) -0.4312(9)
H15H H 1.2709 0.5827 -0.4711
C18H C 1.2232(2) 0.6100(3) -0.5059(9)
H16H H 1.2282 0.6160 -0.5952
C19H C 1.1904(2) 0.6205(2) -0.4474(7)
H17H H 1.1730 0.6332 -0.4988
C20H C 1.18229(17) 0.61252(18) -0.3129(7)
O2H O 1.15034(12) 0.62422(12) -0.2614(5)
C21H C 1.15767(19) 0.62023(19) 0.2019(7)
H18H H 1.1740 0.6413 0.2136
H19H H 1.1495 0.6120 0.2901
C22H C 1.17753(19) 0.58956(19) 0.1304(7)
H20H H 1.1644 0.5664 0.1430
H21H H 1.2024 0.5868 0.1661
N6C N 1.17116(13) 0.68192(13) -0.0651(5)
N6K N 0.82884(13) 0.31808(13) 0.0651(5)
Mn1F Mn 0.87835(2) 0.61414(2) -0.17155(10)
Mn1N Mn 1.12165(2) 0.38586(2) 0.17155(10)
Cl1 Cl 0.89292(6) 0.47002(5) 0.61105(19)
O3 O 0.8921(3) 0.4669(3) 0.4718(9)
O4 O 0.9128(3) 0.5014(2) 0.6306(15)
O5 O 0.8615(3) 0.4745(2) 0.6817(13)
O6 O 0.9091(3) 0.4374(2) 0.6523(10)
O7 O 0.27878(18) 0.99534(17) 0.1030(7)
O8 O 0.5388(3) 0.8672(3) 0.0520(10)
O9 O 0.5000 0.7500 0.1250
O10 O 0.5935(3) 0.1505(4) 1.0224(10)
O11 O 0.5121(6) 0.1811(7) 0.0303(17)
loop_
_geom_bond_atom_site_label_1
_geom_bond_atom_site_label_2
_geom_bond_site_symmetry_1
_geom_bond_site_symmetry_2
Cu1 N1 1_555 1_555
N1 N2 1_555 1_555
N2 C2 1_555 1_555
C1 N1 1_555 1_555
H1 C1 1_555 1_555
C2 H2 1_555 1_555
N3 C1 1_555 1_555
N4 Cu1 1_555 1_555
N5 N4 1_555 1_555
C3 N4 1_555 1_555
H3 C3 1_555 1_555
C4 N5 1_555 1_555
H4 C4 1_555 1_555
N6 C3 1_555 1_555
N7 Cu1 1_555 1_555
N8 N7 1_555 1_555
C5 N7 1_555 1_555
H5 C5 1_555 1_555
C6 N8 1_555 1_555
H6 C6 1_555 1_555
N9 C5 1_555 1_555
B1 N2 1_555 1_555
H7 B1 1_555 1_555
Mn1 N3 1_555 1_555
N10 Mn1 1_555 1_555
C7 N10 1_555 1_555
H8 C7 1_555 1_555
C8 C7 1_555 1_555
C9 C8 1_555 1_555
H9 C9 1_555 1_555
C10 C9 1_555 1_555
H10 C10 1_555 1_555
C11 C10 1_555 1_555
H11 C11 1_555 1_555
C12 C11 1_555 1_555
H12 C12 1_555 1_555
C13 C8 1_555 1_555
O1 Mn1 1_555 1_555
N11 Mn1 1_555 1_555
C14 N11 1_555 1_555
H13 C14 1_555 1_555
C15 C14 1_555 1_555
C16 C15 1_555 1_555
H14 C16 1_555 1_555
C17 C16 1_555 1_555
H15 C17 1_555 1_555
C18 C17 1_555 1_555
H16 C18 1_555 1_555
C19 C18 1_555 1_555
H17 C19 1_555 1_555
C20 C15 1_555 1_555
O2 Mn1 1_555 1_555
C21 N10 1_555 1_555
H18 C21 1_555 1_555
H19 C21 1_555 1_555
C22 N11 1_555 1_555
H20 C22 1_555 1_555
H21 C22 1_555 1_555
Cl1 O3 1_555 1_555
O4 Cl1 1_555 1_555
O5 Cl1 1_555 1_555
O6 Cl1 1_555 1_555
N1H Cu1 1_555 1_555
N2H N1H 1_555 1_555
C1H N1H 1_555 1_555
H1H C1H 1_555 1_555
C2H N2H 1_555 1_555
H2H C2H 1_555 1_555
N3H C1H 1_555 1_555
N4H Cu1 1_555 1_555
N5H N4H 1_555 1_555
C3H N4H 1_555 1_555
H3H C3H 1_555 1_555
C4H N5H 1_555 1_555
H4H C4H 1_555 1_555
N6H C3H 1_555 1_555
N7H Cu1 1_555 1_555
N8H N7H 1_555 1_555
C5H N7H 1_555 1_555
H5H C5H 1_555 1_555
C6H N8H 1_555 1_555
H6H C6H 1_555 1_555
N9H C5H 1_555 1_555
B1H N2H 1_555 1_555
H7H B1H 1_555 1_555
Mn1H N3H 1_555 1_555
N10H Mn1H 1_555 1_555
C7H N10H 1_555 1_555
H8H C7H 1_555 1_555
C8H C7H 1_555 1_555
C9H C8H 1_555 1_555
H9H C9H 1_555 1_555
C10H C9H 1_555 1_555
H10H C10H 1_555 1_555
C11H C10H 1_555 1_555
H11H C11H 1_555 1_555
C12H C11H 1_555 1_555
H12H C12H 1_555 1_555
C13H C8H 1_555 1_555
O1H Mn1H 1_555 1_555
N11H Mn1H 1_555 1_555
C14H N11H 1_555 1_555
H13H C14H 1_555 1_555
C15H C14H 1_555 1_555
C16H C15H 1_555 1_555
H14H C16H 1_555 1_555
C17H C16H 1_555 1_555
H15H C17H 1_555 1_555
C18H C17H 1_555 1_555
H16H C18H 1_555 1_555
C19H C18H 1_555 1_555
H17H C19H 1_555 1_555
C20H C15H 1_555 1_555
O2H Mn1H 1_555 1_555
C21H N10H 1_555 1_555
H18H C21H 1_555 1_555
H19H C21H 1_555 1_555
C22H N11H 1_555 1_555
H20H C22H 1_555 1_555
H21H C22H 1_555 1_555
N6C Mn1H 1_555 1_555
N6K Mn1 1_555 1_555
Mn1F N6H 1_555 1_555
Mn1N N6 1_555 1_555
C2 N3 1_555 1_555
N5 B1 1_555 1_555
C4 N6 1_555 1_555
N8 B1 1_555 1_555
C6 N9 1_555 1_555
C12 C13 1_555 1_555
C13 O1 1_555 1_555
C19 C20 1_555 1_555
C20 O2 1_555 1_555
C21 C22 1_555 1_555
C2H N3H 1_555 1_555
N5H B1H 1_555 1_555
C4H N6H 1_555 1_555
N8H B1H 1_555 1_555
C6H N9H 1_555 1_555
C12H C13H 1_555 1_555
C13H O1H 1_555 1_555
C19H C20H 1_555 1_555
C20H O2H 1_555 1_555
C21H C22H 1_555 1_555

#END
