
#######################################################################
#
#                 Cambridge Crystallographic Data Centre
#                                CCDC 
#
#######################################################################
#
# If this CIF has been generated from an entry in the Cambridge 
# Structural Database, then it will include bibliographic, chemical, 
# crystal, experimental, refinement or atomic coordinate data resulting 
# from the CCDC's data processing and validation procedures.
#
#######################################################################

data_YOGHIL
_symmetry_cell_setting           tetragonal
_symmetry_space_group_name_H-M   'P 42/n'
_symmetry_Int_Tables_number      86
_space_group_name_Hall           '-P 4bc'
loop_
_symmetry_equiv_pos_site_id
_symmetry_equiv_pos_as_xyz
1 x,y,z
2 -y,1/2+x,1/2+z
3 1/2-x,1/2-y,z
4 1/2+y,-x,1/2+z
5 -x,-y,-z
6 y,1/2-x,1/2-z
7 1/2+x,1/2+y,-z
8 1/2-y,x,1/2-z
_cell_length_a                   15.723
_cell_length_b                   15.723
_cell_length_c                   15.677
_cell_angle_alpha                90
_cell_angle_beta                 90
_cell_angle_gamma                90
_cell_volume                     3875.55
loop_
_atom_site_label
_atom_site_type_symbol
_atom_site_fract_x
_atom_site_fract_y
_atom_site_fract_z
V1 V 0.2500 0.7500 0.0085(1)
V2 V 0.2500 0.7500 0.2580(1)
Cl1 Cl 0.3097(2) 0.6153(2) -0.0162(1)
Cl2 Cl 0.1138(2) 0.8064(2) 0.2345(1)
O1 O 0.2500 0.7500 0.1109(4)
O2 O 0.2500 0.7500 -0.1394(4)
N1 N 0.3716(4) 0.8044(5) -0.0019(4)
N2 N 0.4337(4) 0.7928(5) 0.0578(4)
C1 C 0.4068(6) 0.8573(6) -0.0577(6)
C2 C 0.4871(7) 0.8789(7) -0.0347(6)
C3 C 0.5054(6) 0.8367(6) 0.0402(6)
C4 C 0.5809(6) 0.8373(7) 0.0982(7)
C5 C 0.6571(7) 0.8756(10) 0.0500(8)
C6 C 0.6057(7) 0.7489(8) 0.1266(7)
C7 C 0.5612(8) 0.8911(9) 0.1736(8)
N3 N 0.3018(4) 0.8722(4) 0.2433(4)
N4 N 0.3462(5) 0.9101(5) 0.3073(4)
C8 C 0.3021(6) 0.9270(6) 0.1802(6)
C9 C 0.3425(6) 1.0007(6) 0.2014(6)
C10 C 0.3703(6) 0.9902(6) 0.2839(6)
C11 C 0.4184(8) 1.0467(7) 0.3471(6)
C12 C 0.4394(11) 1.1287(8) 0.3042(9)
C13 C 0.5016(8) 1.0024(9) 0.3757(7)
C14 C 0.3653(9) 1.0605(8) 0.4275(8)
H1 H 0.4275 0.7594 0.1040
H2 H 0.3777 0.8783 -0.1072
H3 H 0.5251 0.9159 -0.0651
H4 H 0.6428 0.9322 0.0317
H5 H 0.7058 0.8778 0.0868
H6 H 0.6698 0.8411 0.0011
H7 H 0.5589 0.7240 0.1570
H8 H 0.6186 0.7148 0.0774
H9 H 0.6546 0.7515 0.1631
H10 H 0.5139 0.8662 0.2033
H11 H 0.6094 0.8938 0.2110
H12 H 0.5464 0.9474 0.1553
H13 H 0.3580 0.8855 0.3578
H14 H 0.2760 0.9164 0.1258
H15 H 0.3505 1.0501 0.1663
H16 H 0.3878 1.1563 0.2866
H17 H 0.4704 1.1656 0.3419
H18 H 0.4736 1.1162 0.2550
H19 H 0.5374 0.9932 0.3269
H20 H 0.5308 1.0377 0.4162
H21 H 0.4882 0.9487 0.4016
H22 H 0.3132 1.0881 0.4116
H23 H 0.3528 1.0065 0.4531
H24 H 0.3954 1.0955 0.4677
Cl1B Cl 0.1903(2) 0.8847(2) -0.0162(1)
N1B N 0.1284(4) 0.6956(5) -0.0019(4)
N2B N 0.0663(4) 0.7072(5) 0.0578(4)
C1B C 0.0932(6) 0.6427(6) -0.0577(6)
C2B C 0.0129(7) 0.6211(7) -0.0347(6)
C3B C -0.0054(6) 0.6633(6) 0.0402(6)
C4B C -0.0809(6) 0.6627(7) 0.0982(7)
C5B C -0.1571(7) 0.6244(10) 0.0500(8)
C6B C -0.1057(7) 0.7511(8) 0.1266(7)
C7B C -0.0612(8) 0.6089(9) 0.1736(8)
H1B H 0.0725 0.7406 0.1040
H2B H 0.1223 0.6217 -0.1072
H3B H -0.0251 0.5841 -0.0651
H4B H -0.1428 0.5678 0.0317
H5B H -0.2058 0.6222 0.0868
H6B H -0.1698 0.6589 0.0011
H7B H -0.0589 0.7760 0.1570
H8B H -0.1186 0.7852 0.0774
H9B H -0.1546 0.7485 0.1631
H10B H -0.0139 0.6338 0.2033
H11B H -0.1094 0.6062 0.2110
H12B H -0.0464 0.5526 0.1553
Cl2B Cl 0.3862(2) 0.6936(2) 0.2345(1)
N3B N 0.1982(4) 0.6278(4) 0.2433(4)
N4B N 0.1538(5) 0.5899(5) 0.3073(4)
C8B C 0.1979(6) 0.5730(6) 0.1802(6)
C9B C 0.1575(6) 0.4993(6) 0.2014(6)
C10B C 0.1297(6) 0.5098(6) 0.2839(6)
C11B C 0.0816(8) 0.4533(7) 0.3471(6)
C12B C 0.0606(11) 0.3713(8) 0.3042(9)
C13B C -0.0016(8) 0.4976(9) 0.3757(7)
C14B C 0.1347(9) 0.4395(8) 0.4275(8)
H13B H 0.1420 0.6145 0.3578
H14B H 0.2240 0.5836 0.1258
H15B H 0.1495 0.4499 0.1663
H16B H 0.1122 0.3437 0.2866
H17B H 0.0296 0.3344 0.3419
H18B H 0.0264 0.3838 0.2550
H19B H -0.0374 0.5068 0.3269
H20B H -0.0308 0.4623 0.4162
H21B H 0.0118 0.5513 0.4016
H22B H 0.1868 0.4119 0.4116
H23B H 0.1472 0.4935 0.4531
H24B H 0.1046 0.4045 0.4677
O2A O 0.2500 0.7500 0.3606(4)
V2A V 0.2500 0.7500 -0.2420(1)
loop_
_geom_bond_atom_site_label_1
_geom_bond_atom_site_label_2
_geom_bond_site_symmetry_1
_geom_bond_site_symmetry_2
V1 Cl1 1_555 1_555
V2 Cl2 1_555 1_555
O1 V1 1_555 1_555
O2 V1 1_555 1_555
N1 V1 1_555 1_555
N2 N1 1_555 1_555
C1 N1 1_555 1_555
C2 C1 1_555 1_555
C3 N2 1_555 1_555
C4 C3 1_555 1_555
C5 C4 1_555 1_555
C6 C4 1_555 1_555
C7 C4 1_555 1_555
N3 V2 1_555 1_555
N4 N3 1_555 1_555
C8 N3 1_555 1_555
C9 C8 1_555 1_555
C10 N4 1_555 1_555
C11 C10 1_555 1_555
C12 C11 1_555 1_555
C13 C11 1_555 1_555
C14 C11 1_555 1_555
H1 N2 1_555 1_555
H2 C1 1_555 1_555
H3 C2 1_555 1_555
H4 C5 1_555 1_555
H5 C5 1_555 1_555
H6 C5 1_555 1_555
H7 C6 1_555 1_555
H8 C6 1_555 1_555
H9 C6 1_555 1_555
H10 C7 1_555 1_555
H11 C7 1_555 1_555
H12 C7 1_555 1_555
H13 N4 1_555 1_555
H14 C8 1_555 1_555
H15 C9 1_555 1_555
H16 C12 1_555 1_555
H17 C12 1_555 1_555
H18 C12 1_555 1_555
H19 C13 1_555 1_555
H20 C13 1_555 1_555
H21 C13 1_555 1_555
H22 C14 1_555 1_555
H23 C14 1_555 1_555
H24 C14 1_555 1_555
Cl1B V1 1_555 1_555
N1B V1 1_555 1_555
N2B N1B 1_555 1_555
C1B N1B 1_555 1_555
C2B C1B 1_555 1_555
C3B N2B 1_555 1_555
C4B C3B 1_555 1_555
C5B C4B 1_555 1_555
C6B C4B 1_555 1_555
C7B C4B 1_555 1_555
H1B N2B 1_555 1_555
H2B C1B 1_555 1_555
H3B C2B 1_555 1_555
H4B C5B 1_555 1_555
H5B C5B 1_555 1_555
H6B C5B 1_555 1_555
H7B C6B 1_555 1_555
H8B C6B 1_555 1_555
H9B C6B 1_555 1_555
H10B C7B 1_555 1_555
H11B C7B 1_555 1_555
H12B C7B 1_555 1_555
Cl2B V2 1_555 1_555
N3B V2 1_555 1_555
N4B N3B 1_555 1_555
C8B N3B 1_555 1_555
C9B C8B 1_555 1_555
C10B N4B 1_555 1_555
C11B C10B 1_555 1_555
C12B C11B 1_555 1_555
C13B C11B 1_555 1_555
C14B C11B 1_555 1_555
H13B N4B 1_555 1_555
H14B C8B 1_555 1_555
H15B C9B 1_555 1_555
H16B C12B 1_555 1_555
H17B C12B 1_555 1_555
H18B C12B 1_555 1_555
H19B C13B 1_555 1_555
H20B C13B 1_555 1_555
H21B C13B 1_555 1_555
H22B C14B 1_555 1_555
H23B C14B 1_555 1_555
H24B C14B 1_555 1_555
O2A V2 1_555 1_555
V2A O2 1_555 1_555
V2 O1 1_555 1_555
C2 C3 1_555 1_555
C9 C10 1_555 1_555
C2B C3B 1_555 1_555
C9B C10B 1_555 1_555

#END
