
#######################################################################
#
#                 Cambridge Crystallographic Data Centre
#                                CCDC 
#
#######################################################################
#
# If this CIF has been generated from an entry in the Cambridge 
# Structural Database, then it will include bibliographic, chemical, 
# crystal, experimental, refinement or atomic coordinate data resulting 
# from the CCDC's data processing and validation procedures.
#
#######################################################################

data_YOGNIS
_symmetry_cell_setting           monoclinic
_symmetry_space_group_name_H-M   'P 21/n'
_symmetry_Int_Tables_number      14
_space_group_name_Hall           '-P 2yn'
loop_
_symmetry_equiv_pos_site_id
_symmetry_equiv_pos_as_xyz
1 x,y,z
2 1/2-x,1/2+y,1/2-z
3 -x,-y,-z
4 1/2+x,1/2-y,1/2+z
_cell_length_a                   7.09440(10)
_cell_length_b                   20.1085(3)
_cell_length_c                   8.64560(10)
_cell_angle_alpha                90
_cell_angle_beta                 95.3840(10)
_cell_angle_gamma                90
_cell_volume                     1227.92
loop_
_atom_site_label
_atom_site_type_symbol
_atom_site_fract_x
_atom_site_fract_y
_atom_site_fract_z
Cd1 Cd 0.25316(2) 0.004701(8) 0.086572(17)
Cl1 Cl 0.40082(8) 0.05752(3) -0.13618(6)
Cl2 Cl -0.05026(8) 0.08240(3) 0.07736(6)
C1 C 0.5171(4) 0.16680(14) 0.2100(4)
H1 H 0.4999 0.1436 0.1166
C2 C 0.4466(3) 0.14168(12) 0.3409(3)
C3 C 0.6365(5) 0.26136(17) 0.3561(6)
H2 H 0.7015 0.3016 0.3614
C4 C 0.4694(4) 0.17697(16) 0.4809(4)
H3 H 0.4215 0.1602 0.5695
C5 C 0.5635(6) 0.23676(18) 0.4858(5)
H4 H 0.5779 0.2608 0.5781
C6 C 0.6140(5) 0.22686(17) 0.2176(5)
H5 H 0.6635 0.2438 0.1298
N1 N 0.3597(2) 0.07817(10) 0.3265(2)
N2 N 0.3225(3) 0.05329(11) 0.4546(2)
C7 C 0.2375(3) -0.00840(12) 0.4407(2)
N3 N 0.1880(3) -0.04258(10) 0.3126(2)
C8 C 0.1080(4) -0.09895(14) 0.5181(3)
H6 H 0.0610 -0.1318 0.5796
N4 N 0.1901(3) -0.04143(12) 0.5668(2)
H7 H 0.2090 -0.0281 0.6615
C9 C 0.1075(4) -0.09942(13) 0.3605(3)
H8 H 0.0594 -0.1335 0.2955
Cd1B Cd 0.74684(2) -0.004701(8) -0.086572(17)
Cd1B_2 Cd -0.25316(2) -0.004701(8) -0.086572(17)
Cl1B Cl 0.59918(8) -0.05752(3) 0.13618(6)
Cl2B Cl 0.05026(8) -0.08240(3) -0.07736(6)
loop_
_geom_bond_atom_site_label_1
_geom_bond_atom_site_label_2
_geom_bond_site_symmetry_1
_geom_bond_site_symmetry_2
Cd1 Cl1 1_555 1_555
Cl1 Cd1B 1_555 1_555
Cl2 Cd1 1_555 1_555
C1 H1 1_555 1_555
C2 C1 1_555 1_555
C3 H2 1_555 1_555
C4 C2 1_555 1_555
H3 C4 1_555 1_555
C5 C3 1_555 1_555
H4 C5 1_555 1_555
C6 C1 1_555 1_555
H5 C6 1_555 1_555
N1 Cd1 1_555 1_555
N2 N1 1_555 1_555
C7 N2 1_555 1_555
N3 Cd1 1_555 1_555
C8 H6 1_555 1_555
N4 C7 1_555 1_555
H7 N4 1_555 1_555
C9 N3 1_555 1_555
H8 C9 1_555 1_555
Cd1B Cl1B 1_555 1_555
Cd1B_2 Cl2 1_555 1_555
Cl1B Cd1 1_555 1_555
Cl2B Cd1 1_555 1_555
C2 N1 1_555 1_555
C3 C6 1_555 1_555
C4 C5 1_555 1_555
C7 N3 1_555 1_555
C8 N4 1_555 1_555
C8 C9 1_555 1_555
Cd1B_2 Cl2B 1_555 1_555

#END
