
#######################################################################
#
#                 Cambridge Crystallographic Data Centre
#                                CCDC 
#
#######################################################################
#
# If this CIF has been generated from an entry in the Cambridge 
# Structural Database, then it will include bibliographic, chemical, 
# crystal, experimental, refinement or atomic coordinate data resulting 
# from the CCDC's data processing and validation procedures.
#
#######################################################################

data_YOGPEQ
_symmetry_cell_setting           monoclinic
_symmetry_space_group_name_H-M   'P 21'
_symmetry_Int_Tables_number      4
_space_group_name_Hall           'P 2yb'
loop_
_symmetry_equiv_pos_site_id
_symmetry_equiv_pos_as_xyz
1 x,y,z
2 -x,1/2+y,-z
_cell_length_a                   11.024(2)
_cell_length_b                   11.295(2)
_cell_length_c                   22.040(4)
_cell_angle_alpha                90
_cell_angle_beta                 96.15(3)
_cell_angle_gamma                90
_cell_volume                     2728.54
loop_
_atom_site_label
_atom_site_type_symbol
_atom_site_fract_x
_atom_site_fract_y
_atom_site_fract_z
C1 C 0.7975(4) -0.0552(3) 0.02831(15)
H1 H 0.8248 -0.0560 0.0697
C2 C 0.7676(4) -0.1011(3) -0.06686(16)
H2 H 0.7712 -0.1409 -0.1036
C3 C 0.7039(4) -0.0017(3) -0.05975(15)
H3 H 0.6561 0.0392 -0.0901
C4 C 0.6728(4) 0.1299(3) 0.03149(16)
H4 H 0.7142 0.2013 0.0206
H5 H 0.6883 0.1198 0.0753
C5 C 0.5360(4) 0.1445(3) 0.01410(18)
H6 H 0.5074 0.2128 0.0351
H7 H 0.5207 0.1588 -0.0294
C6 C 0.4651(4) 0.0359(3) 0.03037(18)
H8 H 0.4879 -0.0308 0.0063
H9 H 0.4868 0.0169 0.0731
C7 C 0.3295(4) 0.0540(3) 0.01917(19)
H10 H 0.3060 0.1190 0.0442
H11 H 0.3077 0.0751 -0.0233
C8 C 0.1598(4) -0.0918(3) 0.00234(16)
H12 H 0.1237 -0.0578 -0.0336
C9 C 0.2876(4) -0.1244(3) 0.08396(16)
H13 H 0.3534 -0.1179 0.1140
C10 C 0.1963(4) -0.2061(3) 0.08084(15)
H14 H 0.1894 -0.2664 0.1090
C11 C -0.0092(4) -0.3194(3) -0.10660(16)
C12 C 0.0027(4) -0.3850(3) -0.16509(15)
C13 C 0.0727(4) -0.3347(3) -0.20708(16)
H15 H 0.1167 -0.2657 -0.1975
C14 C 0.0764(4) -0.3879(3) -0.26293(16)
C15 C 0.0121(4) -0.4897(3) -0.27971(16)
H16 H 0.0149 -0.5245 -0.3178
C16 C -0.0565(4) -0.5370(3) -0.23700(15)
C17 C -0.0622(4) -0.4881(3) -0.17977(14)
H17 H -0.1083 -0.5236 -0.1519
C18 C -0.0692(4) -0.3130(3) 0.12725(16)
C19 C -0.0478(4) -0.3800(3) 0.18664(15)
C20 C 0.0206(4) -0.4839(3) 0.19314(15)
H18 H 0.0503 -0.5190 0.1595
C21 C 0.0433(4) -0.5336(3) 0.25040(15)
C22 C -0.0038(4) -0.4878(3) 0.30138(16)
H19 H 0.0104 -0.5240 0.3394
C23 C -0.0723(4) -0.3865(3) 0.29291(16)
C24 C -0.0940(4) -0.3296(3) 0.23745(15)
H20 H -0.1383 -0.2594 0.2339
Co1 Co -0.04545(5) -0.26343(3) 0.00644(2)
N1 N 0.8269(3) -0.1352(2) -0.01114(12)
N2 N 0.7229(3) 0.0280(2) 0.00101(12)
N3 N 0.2623(3) -0.0536(2) 0.03349(13)
N4 N 0.1159(3) -0.1857(2) 0.02972(12)
N9 N 0.1472(4) -0.3310(4) -0.30848(17)
N10 N -0.1317(3) -0.6422(2) -0.25498(13)
N11 N 0.1220(3) -0.6387(2) 0.25931(14)
N12 N -0.1204(4) -0.3333(3) 0.34658(15)
O1 O -0.0551(3) -0.3755(2) -0.06390(11)
O2 O 0.0246(3) -0.2152(2) -0.10195(12)
O3 O -0.0548(3) -0.37013(19) 0.07837(10)
O4 O -0.0921(3) -0.2074(2) 0.12948(13)
O5 O 0.1747(3) -0.6726(2) 0.21653(12)
O6 O 0.1298(3) -0.6872(2) 0.30931(13)
O7 O -0.1150(4) -0.3903(3) 0.39324(13)
O8 O -0.1594(4) -0.2307(3) 0.34204(14)
O9 O 0.1957(4) -0.2364(3) -0.29546(16)
O10 O 0.1474(4) -0.3803(3) -0.35769(14)
O11 O -0.1339(4) -0.6770(3) -0.30780(12)
O12 O -0.1871(3) -0.6887(2) -0.21668(12)
Co1_2 Co 0.95455(5) -0.26343(3) 0.00644(2)
N1_2 N -0.1731(3) -0.1352(2) -0.01114(12)
C25 C 0.3377(4) 0.1446(3) 0.49613(15)
H21 H 0.3725 0.1782 0.5324
C26 C 0.3052(4) 0.0316(3) 0.41734(15)
H22 H 0.3141 -0.0282 0.3892
C27 C 0.2157(4) 0.1142(3) 0.41268(16)
H23 H 0.1522 0.1213 0.3816
C28 C 0.1693(4) 0.2925(3) 0.47655(19)
H24 H 0.1904 0.3562 0.4501
H25 H 0.1921 0.3168 0.5184
C29 C 0.0334(4) 0.2714(3) 0.46691(18)
H26 H 0.0134 0.2034 0.4908
H27 H 0.0098 0.2532 0.4243
C30 C -0.0385(4) 0.3777(3) 0.48498(17)
H28 H -0.0223 0.3898 0.5287
H29 H -0.0109 0.4476 0.4648
C31 C -0.1747(4) 0.3636(3) 0.46844(17)
H30 H -0.2159 0.4345 0.4803
H31 H -0.1915 0.3548 0.4246
C32 C -0.2996(4) 0.1785(3) 0.47232(15)
H32 H -0.3288 0.1782 0.4311
C33 C -0.2015(4) 0.2307(3) 0.55961(15)
H33 H -0.1525 0.2715 0.5896
C34 C -0.2651(4) 0.1311(3) 0.56707(16)
H34 H -0.2666 0.0905 0.6037
C35 C -0.4343(4) -0.0815(3) 0.37799(16)
C36 C -0.4552(4) -0.1522(3) 0.31983(15)
C37 C -0.3988(4) -0.1118(3) 0.26920(16)
H35 H -0.3463 -0.0471 0.2729
C38 C -0.4223(4) -0.1690(3) 0.21485(16)
C39 C -0.5011(4) -0.2638(3) 0.20628(15)
H36 H -0.5154 -0.3019 0.1688
C40 C -0.5583(4) -0.2997(3) 0.25673(14)
C41 C -0.5347(4) -0.2477(3) 0.31362(14)
H37 H -0.5712 -0.2761 0.3469
C42 C -0.4953(4) -0.0754(3) 0.61234(16)
C43 C -0.5017(4) -0.1371(3) 0.67255(15)
C44 C -0.4421(4) -0.2438(3) 0.68562(15)
H38 H -0.4014 -0.2820 0.6564
C45 C -0.4446(4) -0.2926(3) 0.74375(16)
C46 C -0.5060(4) -0.2414(3) 0.78832(17)
H39 H -0.5074 -0.2760 0.8265
C47 C -0.5654(4) -0.1362(3) 0.77327(17)
C48 C -0.5656(4) -0.0839(3) 0.71604(17)
H40 H -0.6083 -0.0139 0.7071
Co2 Co -0.45820(5) -0.02740(3) 0.49739(2)
N5 N 0.3813(3) 0.0501(2) 0.47038(12)
N6 N 0.2380(3) 0.1856(2) 0.46357(14)
N7 N -0.2235(3) 0.2604(3) 0.49858(13)
N8 N -0.3280(3) 0.0981(2) 0.51196(12)
N13 N -0.3652(4) -0.1255(3) 0.16116(15)
N14 N -0.6461(3) -0.3963(2) 0.24774(12)
N15 N -0.3771(4) -0.4015(3) 0.75947(14)
N16 N -0.6300(4) -0.0783(3) 0.82006(18)
O13 O -0.4491(3) -0.1374(2) 0.42734(11)
O14 O -0.4109(3) 0.0243(2) 0.37408(13)
O15 O -0.4507(3) -0.1328(2) 0.57036(11)
O16 O -0.5327(3) 0.0268(2) 0.60666(12)
O17 O -0.3186(3) -0.4462(2) 0.72146(12)
O18 O -0.3839(4) -0.4438(3) 0.80985(13)
O19 O -0.6365(5) -0.1310(3) 0.86809(17)
O20 O -0.6730(4) 0.0204(3) 0.80918(17)
O21 O -0.6983(3) -0.4287(2) 0.29095(11)
O22 O -0.6637(3) -0.4409(2) 0.19713(11)
O23 O -0.3852(3) -0.1792(3) 0.11354(12)
O24 O -0.3023(4) -0.0348(3) 0.16865(14)
Co2_2 Co 0.54180(5) -0.02740(3) 0.49739(2)
N5_2 N -0.6187(3) 0.0501(2) 0.47038(12)
loop_
_geom_bond_atom_site_label_1
_geom_bond_atom_site_label_2
_geom_bond_site_symmetry_1
_geom_bond_site_symmetry_2
C1 H1 1_555 1_555
C2 H2 1_555 1_555
C3 C2 1_555 1_555
H3 C3 1_555 1_555
C4 H4 1_555 1_555
H5 C4 1_555 1_555
C5 C4 1_555 1_555
H6 C5 1_555 1_555
H7 C5 1_555 1_555
C6 C5 1_555 1_555
H8 C6 1_555 1_555
H9 C6 1_555 1_555
C7 C6 1_555 1_555
H10 C7 1_555 1_555
H11 C7 1_555 1_555
C8 H12 1_555 1_555
C9 H13 1_555 1_555
C10 C9 1_555 1_555
H14 C10 1_555 1_555
C11 C12 1_555 1_555
C12 C13 1_555 1_555
C13 H15 1_555 1_555
C14 C13 1_555 1_555
C15 C14 1_555 1_555
H16 C15 1_555 1_555
C16 C15 1_555 1_555
C17 C12 1_555 1_555
H17 C17 1_555 1_555
C18 C19 1_555 1_555
C19 C20 1_555 1_555
C20 H18 1_555 1_555
C21 C20 1_555 1_555
C22 C21 1_555 1_555
H19 C22 1_555 1_555
C23 C22 1_555 1_555
C24 C19 1_555 1_555
H20 C24 1_555 1_555
C25 H21 1_555 1_555
C26 H22 1_555 1_555
C27 C26 1_555 1_555
H23 C27 1_555 1_555
C28 H24 1_555 1_555
H25 C28 1_555 1_555
C29 C28 1_555 1_555
H26 C29 1_555 1_555
H27 C29 1_555 1_555
C30 C29 1_555 1_555
H28 C30 1_555 1_555
H29 C30 1_555 1_555
C31 C30 1_555 1_555
H30 C31 1_555 1_555
H31 C31 1_555 1_555
C32 H32 1_555 1_555
C33 H33 1_555 1_555
C34 C33 1_555 1_555
H34 C34 1_555 1_555
C35 C36 1_555 1_555
C36 C37 1_555 1_555
C37 H35 1_555 1_555
C38 C37 1_555 1_555
C39 C38 1_555 1_555
H36 C39 1_555 1_555
C40 C39 1_555 1_555
C41 C36 1_555 1_555
H37 C41 1_555 1_555
C42 C43 1_555 1_555
C43 C44 1_555 1_555
C44 H38 1_555 1_555
C45 C44 1_555 1_555
C46 C45 1_555 1_555
H39 C46 1_555 1_555
C47 C46 1_555 1_555
C48 C43 1_555 1_555
H40 C48 1_555 1_555
Co1 N4 1_555 1_555
Co2 N8 1_555 1_555
N1 C1 1_555 1_555
N2 C1 1_555 1_555
N3 C7 1_555 1_555
N4 C8 1_555 1_555
N5 C25 1_555 1_555
N6 C25 1_555 1_555
N7 C31 1_555 1_555
N8 C32 1_555 1_555
N9 C14 1_555 1_555
N10 C16 1_555 1_555
N11 C21 1_555 1_555
N12 C23 1_555 1_555
N13 C38 1_555 1_555
N14 C40 1_555 1_555
N15 C45 1_555 1_555
N16 C47 1_555 1_555
O1 C11 1_555 1_555
O2 C11 1_555 1_555
O3 C18 1_555 1_555
O4 C18 1_555 1_555
O5 N11 1_555 1_555
O6 N11 1_555 1_555
O7 N12 1_555 1_555
O8 N12 1_555 1_555
O9 N9 1_555 1_555
O10 N9 1_555 1_555
O11 N10 1_555 1_555
O12 N10 1_555 1_555
O13 C35 1_555 1_555
O14 C35 1_555 1_555
O15 C42 1_555 1_555
O16 C42 1_555 1_555
O17 N15 1_555 1_555
O18 N15 1_555 1_555
O19 N16 1_555 1_555
O20 N16 1_555 1_555
O21 N14 1_555 1_555
O22 N14 1_555 1_555
O23 N13 1_555 1_555
O24 N13 1_555 1_555
Co1_2 N1 1_555 1_555
Co2_2 N5 1_555 1_555
N1_2 Co1 1_555 1_555
N5_2 Co2 1_555 1_555
C2 N1 1_555 1_555
C3 N2 1_555 1_555
C4 N2 1_555 1_555
C8 N3 1_555 1_555
C9 N3 1_555 1_555
C10 N4 1_555 1_555
C16 C17 1_555 1_555
C23 C24 1_555 1_555
C26 N5 1_555 1_555
C27 N6 1_555 1_555
C28 N6 1_555 1_555
C32 N7 1_555 1_555
C33 N7 1_555 1_555
C34 N8 1_555 1_555
C40 C41 1_555 1_555
C47 C48 1_555 1_555
Co1 O1 1_555 1_555
Co1 O3 1_555 1_555
Co2 O13 1_555 1_555
Co2 O15 1_555 1_555

#END
