
#######################################################################
#
#                 Cambridge Crystallographic Data Centre
#                                CCDC 
#
#######################################################################
#
# If this CIF has been generated from an entry in the Cambridge 
# Structural Database, then it will include bibliographic, chemical, 
# crystal, experimental, refinement or atomic coordinate data resulting 
# from the CCDC's data processing and validation procedures.
#
#######################################################################

data_YOGQAN
_symmetry_cell_setting           monoclinic
_symmetry_space_group_name_H-M   'P 21/c'
_symmetry_Int_Tables_number      14
_space_group_name_Hall           '-P 2ybc'
loop_
_symmetry_equiv_pos_site_id
_symmetry_equiv_pos_as_xyz
1 x,y,z
2 -x,1/2+y,1/2-z
3 -x,-y,-z
4 x,1/2-y,1/2+z
_cell_length_a                   11.549(2)
_cell_length_b                   12.806(3)
_cell_length_c                   21.281(6)
_cell_angle_alpha                90
_cell_angle_beta                 116.56(2)
_cell_angle_gamma                90
_cell_volume                     2815.23
loop_
_atom_site_label
_atom_site_type_symbol
_atom_site_fract_x
_atom_site_fract_y
_atom_site_fract_z
Co1 Co 0.48906(3) 0.758619(19) 0.711336(13)
C1 C 0.3958(2) 0.91479(14) 0.78667(10)
H1 H 0.4659 0.9585 0.7959
C2 C 0.2629(3) 0.78822(19) 0.74941(13)
H2 H 0.2226 0.7266 0.7273
C3 C 0.2224(3) 0.85147(19) 0.78650(13)
H3 H 0.1504 0.8416 0.7945
C4 C 0.3077(2) 1.01861(16) 0.85474(11)
H4 H 0.2232 1.0230 0.8540
H5 H 0.3224 1.0834 0.8358
C5 C 0.4090(2) 1.00732(13) 0.92949(10)
C6 C 0.4626(2) 1.09622(14) 0.96865(11)
H6 H 0.4374 1.1616 0.9479
C7 C 0.4472(2) 0.91080(14) 0.96191(10)
H7 H 0.4116 0.8502 0.9365
C8 C 0.5970(2) 0.60732(15) 0.83482(10)
H8 H 0.5353 0.5574 0.8093
C9 C 0.7108(2) 0.74625(15) 0.86303(12)
H9 H 0.7437 0.8116 0.8605
C10 C 0.7543(2) 0.68572(16) 0.92071(11)
H10 H 0.8210 0.7015 0.9647
C11 C 0.6919(3) 0.50733(15) 0.94718(12)
H11 H 0.7767 0.5082 0.9874
H12 H 0.6855 0.4437 0.9211
C12 C 0.5902(2) 0.50516(13) 0.97315(9)
C13 C 0.5339(2) 0.59495(15) 0.98344(11)
H13 H 0.5566 0.6596 0.9723
C14 C 0.5549(2) 0.40996(14) 0.99022(11)
H14 H 0.5916 0.3488 0.9838
C15 C 0.3226(2) 0.66968(14) 0.60564(10)
C16 C 0.2290(2) 0.61358(15) 0.54149(10)
C17 C 0.2277(3) 0.50597(16) 0.53835(12)
H15 H 0.2855 0.4674 0.5766
C18 C 0.1404(3) 0.45541(19) 0.47821(13)
H16 H 0.1408 0.3828 0.4768
C19 C 0.0532(3) 0.5090(2) 0.42074(13)
C20 C 0.0570(3) 0.6159(2) 0.42388(13)
H17 H 0.0000 0.6541 0.3852
C21 C 0.1434(3) 0.66858(18) 0.48322(12)
H18 H 0.1440 0.7412 0.4839
C22 C -0.0431(3) 0.4522(3) 0.35572(16)
H19 H -0.0112 0.4505 0.3211
H20 H -0.1247 0.4880 0.3369
H21 H -0.0544 0.3821 0.3680
C23 C 0.6555(2) 0.85091(16) 0.68653(10)
C24 C 0.7540(2) 0.90193(17) 0.66969(11)
C25 C 0.8313(3) 0.8412(2) 0.64989(14)
H22 H 0.8200 0.7692 0.6462
C26 C 0.9256(3) 0.8872(3) 0.63555(17)
H23 H 0.9773 0.8457 0.6225
C27 C 0.9435(3) 0.9941(4) 0.64042(18)
C28 C 0.8636(4) 1.0532(3) 0.65768(17)
H24 H 0.8727 1.1255 0.6595
C29 C 0.7692(3) 1.00899(19) 0.67262(13)
H25 H 0.7165 1.0512 0.6845
C30 C 1.0480(4) 1.0441(4) 0.6259(2)
H26 H 1.1056 0.9910 0.6245
H27 H 1.0958 1.0932 0.6624
H28 H 1.0089 1.0796 0.5815
N1 N 0.37223(17) 0.82881(12) 0.74944(8)
N2 N 0.30730(18) 0.93201(12) 0.80966(8)
N3 N 0.61123(17) 0.69732(12) 0.80864(8)
N4 N 0.68179(18) 0.59682(11) 0.90235(8)
O1 O 0.39017(15) 0.61991(10) 0.66109(7)
O2 O 0.33313(18) 0.76680(10) 0.60343(8)
O3 O 0.63023(19) 0.75609(10) 0.67246(9)
O4 O 0.59807(17) 0.90173(10) 0.71465(8)
Co1B Co 0.51094(3) 1.241381(19) 1.288664(13)
Co1B_2 Co 0.51094(3) 0.241381(19) 1.288664(13)
C1B C 0.6042(2) 1.08521(14) 1.21333(10)
H1B H 0.5341 1.0415 1.2041
C2B C 0.7371(3) 1.21178(19) 1.25059(13)
H2B H 0.7774 1.2734 1.2727
C3B C 0.7776(3) 1.14853(19) 1.21350(13)
H3B H 0.8496 1.1584 1.2055
C4B C 0.6923(2) 0.98139(16) 1.14526(11)
H4B H 0.7768 0.9770 1.1460
H5B H 0.6776 0.9166 1.1642
C5B C 0.5910(2) 0.99268(13) 1.07051(10)
C6B C 0.5374(2) 0.90378(14) 1.03135(11)
H6B H 0.5626 0.8384 1.0521
C7B C 0.5528(2) 1.08920(14) 1.03809(10)
H7B H 0.5884 1.1498 1.0635
C8B C 0.4030(2) 0.39268(15) 1.16518(10)
H8B H 0.4647 0.4426 1.1907
C9B C 0.2892(2) 0.25375(15) 1.13697(12)
H9B H 0.2563 0.1884 1.1395
C10B C 0.2457(2) 0.31428(16) 1.07929(11)
H10B H 0.1790 0.2985 1.0353
C11B C 0.3081(3) 0.49267(15) 1.05282(12)
H11B H 0.2233 0.4918 1.0126
H12B H 0.3145 0.5563 1.0789
C12B C 0.4098(2) 0.49484(13) 1.02685(9)
C13B C 0.4661(2) 0.40505(15) 1.01656(11)
H13B H 0.4434 0.3404 1.0277
C14B C 0.4451(2) 0.59004(14) 1.00978(11)
H14B H 0.4084 0.6512 1.0162
C15B C 0.6774(2) 1.33032(14) 1.39436(10)
C16B C 0.7710(2) 1.38642(15) 1.45851(10)
C17B C 0.7723(3) 1.49403(16) 1.46165(12)
H15B H 0.7145 1.5326 1.4234
C18B C 0.8596(3) 1.54459(19) 1.52179(13)
H16B H 0.8592 1.6172 1.5232
C19B C 0.9468(3) 1.4910(2) 1.57926(13)
C20B C 0.9430(3) 1.3841(2) 1.57612(13)
H17B H 1.0000 1.3459 1.6148
C21B C 0.8566(3) 1.33142(18) 1.51678(12)
H18B H 0.8560 1.2588 1.5161
C22B C 1.0431(3) 1.5478(3) 1.64428(16)
H19B H 1.0112 1.5495 1.6789
H20B H 1.1247 1.5120 1.6631
H21B H 1.0544 1.6179 1.6320
C23B C 0.3445(2) 1.14909(16) 1.31347(10)
C24B C 0.2460(2) 1.09807(17) 1.33031(11)
C25B C 0.1687(3) 1.1588(2) 1.35011(14)
H22B H 0.1800 1.2308 1.3538
C26B C 0.0744(3) 1.1128(3) 1.36445(17)
H23B H 0.0227 1.1543 1.3775
C27B C 0.0565(3) 1.0059(4) 1.35958(18)
C28B C 0.1364(4) 0.9468(3) 1.34232(17)
H24B H 0.1273 0.8745 1.3405
C29B C 0.2308(3) 0.99101(19) 1.32738(13)
H25B H 0.2835 0.9488 1.3155
C30B C -0.0480(4) 0.9559(4) 1.3741(2)
H26B H -0.1056 1.0090 1.3755
H27B H -0.0958 0.9068 1.3376
H28B H -0.0089 0.9204 1.4185
N1B N 0.62777(17) 1.17119(12) 1.25056(8)
N2B N 0.69270(18) 1.06799(12) 1.19034(8)
N3B N 0.38877(17) 0.30268(12) 1.19136(8)
N3B_2 N 0.38877(17) 1.30268(12) 1.19136(8)
N4B N 0.31821(18) 0.40318(11) 1.09765(8)
O1B O 0.60983(15) 1.38009(10) 1.33891(7)
O2B O 0.66687(18) 1.23320(10) 1.39657(8)
O3B O 0.36977(19) 1.24391(10) 1.32754(9)
O4B O 0.40193(17) 1.09827(10) 1.28535(8)
loop_
_geom_bond_atom_site_label_1
_geom_bond_atom_site_label_2
_geom_bond_site_symmetry_1
_geom_bond_site_symmetry_2
Co1 N1 1_555 1_555
C1 H1 1_555 1_555
C2 H2 1_555 1_555
C3 C2 1_555 1_555
H3 C3 1_555 1_555
C4 H4 1_555 1_555
H5 C4 1_555 1_555
C5 C4 1_555 1_555
C6 C5 1_555 1_555
H6 C6 1_555 1_555
C7 C5 1_555 1_555
H7 C7 1_555 1_555
C8 H8 1_555 1_555
C9 H9 1_555 1_555
C10 C9 1_555 1_555
H10 C10 1_555 1_555
C11 H11 1_555 1_555
H12 C11 1_555 1_555
C12 C11 1_555 1_555
C13 C12 1_555 1_555
H13 C13 1_555 1_555
C14 C12 1_555 1_555
H14 C14 1_555 1_555
C15 C16 1_555 1_555
C16 C17 1_555 1_555
C17 H15 1_555 1_555
C18 C17 1_555 1_555
H16 C18 1_555 1_555
C19 C18 1_555 1_555
C20 C19 1_555 1_555
H17 C20 1_555 1_555
C21 C16 1_555 1_555
H18 C21 1_555 1_555
C22 C19 1_555 1_555
H19 C22 1_555 1_555
H20 C22 1_555 1_555
H21 C22 1_555 1_555
C23 C24 1_555 1_555
C24 C25 1_555 1_555
C25 H22 1_555 1_555
C26 C25 1_555 1_555
H23 C26 1_555 1_555
C27 C26 1_555 1_555
C28 C27 1_555 1_555
H24 C28 1_555 1_555
C29 C24 1_555 1_555
H25 C29 1_555 1_555
C30 C27 1_555 1_555
H26 C30 1_555 1_555
H27 C30 1_555 1_555
H28 C30 1_555 1_555
N1 C1 1_555 1_555
N2 C1 1_555 1_555
N3 Co1 1_555 1_555
N4 C8 1_555 1_555
O1 Co1 1_555 1_555
O2 Co1 1_555 1_555
O3 Co1 1_555 1_555
O4 Co1 1_555 1_555
Co1B N1B 1_555 1_555
Co1B_2 N3B 1_555 1_555
C1B H1B 1_555 1_555
C2B H2B 1_555 1_555
C3B C2B 1_555 1_555
H3B C3B 1_555 1_555
C4B H4B 1_555 1_555
H5B C4B 1_555 1_555
C5B C4B 1_555 1_555
C6B C7 1_555 1_555
H6B C6B 1_555 1_555
C7B C6 1_555 1_555
H7B C7B 1_555 1_555
C8B H8B 1_555 1_555
C9B H9B 1_555 1_555
C10B C9B 1_555 1_555
H10B C10B 1_555 1_555
C11B H11B 1_555 1_555
H12B C11B 1_555 1_555
C12B C11B 1_555 1_555
C13B C14 1_555 1_555
H13B C13B 1_555 1_555
C14B C13 1_555 1_555
H14B C14B 1_555 1_555
C15B C16B 1_555 1_555
C16B C17B 1_555 1_555
C17B H15B 1_555 1_555
C18B C17B 1_555 1_555
H16B C18B 1_555 1_555
C19B C18B 1_555 1_555
C20B C19B 1_555 1_555
H17B C20B 1_555 1_555
C21B C16B 1_555 1_555
H18B C21B 1_555 1_555
C22B C19B 1_555 1_555
H19B C22B 1_555 1_555
H20B C22B 1_555 1_555
H21B C22B 1_555 1_555
C23B C24B 1_555 1_555
C24B C25B 1_555 1_555
C25B H22B 1_555 1_555
C26B C25B 1_555 1_555
H23B C26B 1_555 1_555
C27B C26B 1_555 1_555
C28B C27B 1_555 1_555
H24B C28B 1_555 1_555
C29B C24B 1_555 1_555
H25B C29B 1_555 1_555
C30B C27B 1_555 1_555
H26B C30B 1_555 1_555
H27B C30B 1_555 1_555
H28B C30B 1_555 1_555
N1B C1B 1_555 1_555
N2B C1B 1_555 1_555
N3B C8B 1_555 1_555
N3B_2 Co1B 1_555 1_555
N4B C8B 1_555 1_555
O1B Co1B 1_555 1_555
O2B Co1B 1_555 1_555
O3B Co1B 1_555 1_555
O4B Co1B 1_555 1_555
C2 N1 1_555 1_555
C3 N2 1_555 1_555
C4 N2 1_555 1_555
C8 N3 1_555 1_555
C9 N3 1_555 1_555
C10 N4 1_555 1_555
C11 N4 1_555 1_555
C15 O1 1_555 1_555
C15 O2 1_555 1_555
C20 C21 1_555 1_555
C23 O3 1_555 1_555
C23 O4 1_555 1_555
C28 C29 1_555 1_555
C2B N1B 1_555 1_555
C3B N2B 1_555 1_555
C4B N2B 1_555 1_555
C5B C6B 1_555 1_555
C5B C7B 1_555 1_555
C9B N3B 1_555 1_555
C10B N4B 1_555 1_555
C11B N4B 1_555 1_555
C12B C13B 1_555 1_555
C12B C14B 1_555 1_555
C15B O1B 1_555 1_555
C15B O2B 1_555 1_555
C20B C21B 1_555 1_555
C23B O3B 1_555 1_555
C23B O4B 1_555 1_555
C28B C29B 1_555 1_555

#END
