
#######################################################################
#
#                 Cambridge Crystallographic Data Centre
#                                CCDC 
#
#######################################################################
#
# If this CIF has been generated from an entry in the Cambridge 
# Structural Database, then it will include bibliographic, chemical, 
# crystal, experimental, refinement or atomic coordinate data resulting 
# from the CCDC's data processing and validation procedures.
#
#######################################################################

data_YOGROC
_symmetry_cell_setting           triclinic
_symmetry_space_group_name_H-M   'P -1'
_symmetry_Int_Tables_number      2
_space_group_name_Hall           '-P 1'
loop_
_symmetry_equiv_pos_site_id
_symmetry_equiv_pos_as_xyz
1 x,y,z
2 -x,-y,-z
_cell_length_a                   10.416(2)
_cell_length_b                   11.110(2)
_cell_length_c                   13.181(3)
_cell_angle_alpha                102.42(3)
_cell_angle_beta                 112.32(3)
_cell_angle_gamma                96.10(3)
_cell_volume                     1347.87
loop_
_atom_site_label
_atom_site_type_symbol
_atom_site_fract_x
_atom_site_fract_y
_atom_site_fract_z
Sm1 Sm 0.789787(3) -0.089030(2) 0.368802(2)
O1 O 0.93516(6) -0.15187(4) 0.51968(4)
O2 O 1.15389(5) -0.12003(4) 0.65178(4)
O3 O 1.30511(5) -0.51338(5) 0.70128(6)
O4 O 1.15997(5) -0.68021(4) 0.69514(4)
O5 O 0.64154(6) -0.64014(5) 0.55536(6)
O6 O 0.61820(6) -0.45251(7) 0.61735(7)
O7 O 0.98472(4) -0.08444(4) 0.31944(4)
O8 O 1.20354(5) -0.04455(5) 0.45895(4)
O9 O 1.58471(4) -0.22060(4) 0.35510(4)
O10 O 1.48649(5) -0.39998(5) 0.21514(5)
O11 O 1.03618(8) -0.42067(9) -0.09370(6)
O12 O 0.89711(8) -0.30433(10) -0.06628(7)
N1 N 1.00713(7) -0.34075(9) -0.03399(6)
N2 N 0.68595(6) -0.52721(6) 0.59178(6)
N3 N 0.63500(5) -0.16698(5) 0.14968(4)
N4 N 0.56899(5) 0.01276(5) 0.28704(5)
C1 C 0.99604(6) -0.30985(5) 0.61224(5)
C2 C 1.10108(6) -0.37936(6) 0.64393(5)
C3 C 1.06921(6) -0.49928(6) 0.65469(5)
C4 C 0.93216(7) -0.54978(6) 0.63610(5)
C5 C 0.83032(6) -0.47719(6) 0.60800(6)
C6 C 0.85846(6) -0.35914(6) 0.59419(5)
C7 C 1.03154(6) -0.18410(5) 0.59360(5)
C8 C 1.18394(7) -0.57357(6) 0.68614(6)
C9 C 1.16397(6) -0.15814(6) 0.27279(5)
C10 C 1.30083(6) -0.18037(6) 0.30758(5)
C11 C 1.33840(6) -0.26211(6) 0.23289(5)
C12 C 1.24034(6) -0.31802(7) 0.12043(5)
C13 C 1.10879(7) -0.28626(7) 0.08579(6)
C14 C 1.06759(6) -0.20934(7) 0.15939(6)
C15 C 1.11396(6) -0.08882(6) 0.35708(5)
C16 C 1.48127(6) -0.29590(6) 0.27150(5)
C17 C 0.66393(8) -0.25563(7) 0.08148(6)
C18 C 0.58027(9) -0.30549(8) -0.03479(7)
C19 C 0.45925(10) -0.26109(9) -0.08308(6)
C20 C 0.42317(8) -0.16955(7) -0.01551(6)
C21 C 0.29847(9) -0.11719(9) -0.05927(7)
C22 C 0.26680(8) -0.03038(8) 0.00853(7)
C23 C 0.35515(7) 0.01804(7) 0.12787(6)
C24 C 0.32751(8) 0.11116(8) 0.20129(8)
C25 C 0.41985(8) 0.15478(8) 0.31445(8)
C26 C 0.53914(7) 0.10219(7) 0.35307(7)
C27 C 0.47990(6) -0.02888(6) 0.17459(5)
C28 C 0.51488(7) -0.12325(6) 0.10245(5)
H1 H 1.1876(8) -0.3518(8) 0.6514(6)
H2 H 0.9161(8) -0.6232(7) 0.6480(6)
H3 H 0.7885(8) -0.3248(7) 0.5733(6)
H4 H 1.3648(7) -0.1459(7) 0.3803(6)
H5 H 1.2592(9) -0.3684(8) 0.0725(7)
H6 H 0.9814(7) -0.1937(7) 0.1373(6)
H7 H 0.7480(7) -0.2883(7) 0.1122(6)
H8 H 0.6038(9) -0.3706(9) -0.0793(8)
H9 H 0.3954(9) -0.2952(9) -0.1574(7)
H10 H 0.2333(10) -0.1477(9) -0.1322(8)
H11 H 0.1862(10) 0.0054(9) -0.0179(8)
H12 H 0.2479(10) 0.1476(10) 0.1677(8)
H13 H 0.4006(8) 0.2232(8) 0.3657(7)
H14 H 0.6048(8) 0.1290(8) 0.4270(7)
H15 H 1.5686(3) -0.4267(5) 0.2436(11)
Sm1A Sm 1.210213(3) 0.089030(2) 0.631198(2)
Sm1A_2 Sm 1.210213(3) -0.910970(2) 0.631198(2)
Sm1_2 Sm 1.789787(3) -0.089030(2) 0.368802(2)
O2A O 0.84611(5) 0.12003(4) 0.34822(4)
O4A O 0.84003(5) -0.31979(4) 0.30486(4)
O8A O 0.79646(5) 0.04455(5) 0.54105(4)
O9_2 O 0.58471(4) -0.22060(4) 0.35510(4)
loop_
_geom_bond_atom_site_label_1
_geom_bond_atom_site_label_2
_geom_bond_site_symmetry_1
_geom_bond_site_symmetry_2
Sm1 O1 1_555 1_555
O1 C7 1_555 1_555
O2 C7 1_555 1_555
O3 C8 1_555 1_555
O4 C8 1_555 1_555
O5 N2 1_555 1_555
O6 N2 1_555 1_555
O7 Sm1 1_555 1_555
O8 C15 1_555 1_555
O9 C16 1_555 1_555
O10 C16 1_555 1_555
O11 N1 1_555 1_555
O12 N1 1_555 1_555
N1 C13 1_555 1_555
N2 C5 1_555 1_555
N3 Sm1 1_555 1_555
N4 Sm1 1_555 1_555
C1 C2 1_555 1_555
C2 C3 1_555 1_555
C3 C4 1_555 1_555
C4 C5 1_555 1_555
C5 C6 1_555 1_555
C6 C1 1_555 1_555
C7 C1 1_555 1_555
C8 C3 1_555 1_555
C9 C10 1_555 1_555
C10 C11 1_555 1_555
C11 C12 1_555 1_555
C12 C13 1_555 1_555
C13 C14 1_555 1_555
C14 C9 1_555 1_555
C15 O7 1_555 1_555
C16 C11 1_555 1_555
C17 N3 1_555 1_555
C18 C17 1_555 1_555
C19 C18 1_555 1_555
C20 C19 1_555 1_555
C21 C20 1_555 1_555
C22 C21 1_555 1_555
C23 C22 1_555 1_555
C24 C23 1_555 1_555
C25 C24 1_555 1_555
C26 N4 1_555 1_555
C27 N4 1_555 1_555
C28 N3 1_555 1_555
H1 C2 1_555 1_555
H2 C4 1_555 1_555
H3 C6 1_555 1_555
H4 C10 1_555 1_555
H5 C12 1_555 1_555
H6 C14 1_555 1_555
H7 C17 1_555 1_555
H8 C18 1_555 1_555
H9 C19 1_555 1_555
H10 C21 1_555 1_555
H11 C22 1_555 1_555
H12 C24 1_555 1_555
H13 C25 1_555 1_555
H14 C26 1_555 1_555
H15 O10 1_555 1_555
Sm1A O2 1_555 1_555
Sm1A_2 O4 1_555 1_555
Sm1_2 O9 1_555 1_555
O2A Sm1 1_555 1_555
O4A Sm1 1_555 1_555
O8A Sm1 1_555 1_555
O9_2 Sm1 1_555 1_555
O8 Sm1A 1_555 1_555
C9 C15 1_555 1_555
C20 C28 1_555 1_555
C23 C27 1_555 1_555
C25 C26 1_555 1_555
C27 C28 1_555 1_555

#END
