
#######################################################################
#
#                 Cambridge Crystallographic Data Centre
#                                CCDC 
#
#######################################################################
#
# If this CIF has been generated from an entry in the Cambridge 
# Structural Database, then it will include bibliographic, chemical, 
# crystal, experimental, refinement or atomic coordinate data resulting 
# from the CCDC's data processing and validation procedures.
#
#######################################################################

data_YOGRUI
_symmetry_cell_setting           triclinic
_symmetry_space_group_name_H-M   'P -1'
_symmetry_Int_Tables_number      2
_space_group_name_Hall           '-P 1'
loop_
_symmetry_equiv_pos_site_id
_symmetry_equiv_pos_as_xyz
1 x,y,z
2 -x,-y,-z
_cell_length_a                   10.437(2)
_cell_length_b                   12.536(3)
_cell_length_c                   19.787(4)
_cell_angle_alpha                106.21(3)
_cell_angle_beta                 99.07(3)
_cell_angle_gamma                100.53(3)
_cell_volume                     2383.67
loop_
_atom_site_label
_atom_site_type_symbol
_atom_site_fract_x
_atom_site_fract_y
_atom_site_fract_z
Pr1 Pr 0.195480(6) -0.411550(6) -0.457150(4)
Pr2 Pr 0.351420(7) -0.914360(6) -0.097290(4)
O1 O -0.08795(10) -0.61415(8) -0.43319(5)
O2 O 0.13437(10) -0.56844(8) -0.40609(5)
O3 O 0.33470(11) -0.80421(10) -0.26541(6)
O4 O 0.22755(10) -0.84986(9) -0.18535(5)
O5 O -0.18287(13) -0.73697(12) -0.15848(7)
O6 O -0.30551(12) -0.71154(13) -0.24699(7)
O7 O 0.41199(9) -0.41243(8) -0.38481(5)
O8 O 0.28641(10) -0.31342(9) -0.32693(6)
O9 O 0.51146(10) -0.02362(9) -0.08847(6)
O10 O 0.66828(10) -0.06578(9) -0.01781(5)
O11 O 0.91168(12) -0.33429(13) -0.14256(8)
O12 O 0.81700(14) -0.45745(13) -0.24382(10)
O13 O 0.10493(11) -0.00527(10) -0.11617(6)
O14 O 0.22008(11) -0.10204(10) -0.18278(7)
O15 O -0.01583(9) -0.38323(8) -0.42972(5)
O16 O -0.23658(9) -0.42538(8) -0.45277(5)
O17 O -0.44247(10) -0.12138(9) -0.33460(6)
O18 O -0.32589(13) 0.01465(12) -0.24050(9)
O19 O 0.49441(11) -0.86570(12) -0.17509(7)
H1 H 0.4524 -0.8449 -0.2056
N1 N -0.20125(13) -0.72541(12) -0.21802(7)
N2 N 0.81878(12) -0.37726(11) -0.19378(8)
N3 N -0.34024(12) -0.07469(10) -0.28778(7)
N4 N 0.23123(13) -0.18840(10) -0.44379(7)
N5 N 0.38253(11) -0.31533(10) -0.51323(7)
N6 N 0.55485(15) -0.75499(12) -0.00355(9)
N7 N 0.30458(14) -0.71803(11) -0.02762(7)
C1 C 0.01969(13) -0.67049(10) -0.34071(7)
C2 C 0.12622(14) -0.71234(11) -0.31655(7)
H2 H 0.2019 -0.7044 -0.3358
C3 C 0.12126(14) -0.76608(11) -0.26383(7)
C4 C 0.01272(14) -0.77093(12) -0.23218(7)
H3 H 0.0097 -0.8032 -0.1953
C5 C -0.09117(14) -0.72743(12) -0.25593(8)
C6 C -0.09218(14) -0.67909(12) -0.31060(7)
H4 H -0.1653 -0.6531 -0.3269
C7 C 0.02307(14) -0.61314(11) -0.39816(7)
C8 C 0.23759(14) -0.81115(12) -0.23723(8)
C9 C 0.49651(13) -0.31283(11) -0.26033(7)
C10 C 0.49220(13) -0.22362(12) -0.20156(7)
H5 H 0.4194 -0.1905 -0.2032
C11 C 0.59551(13) -0.18255(11) -0.13994(7)
C12 C 0.70301(13) -0.23383(12) -0.13685(7)
H6 H 0.7722 -0.2084 -0.0960
C13 C 0.70432(13) -0.32270(11) -0.19549(8)
C14 C 0.60398(13) -0.36421(12) -0.25758(8)
H7 H 0.6082 -0.4247 -0.2964
C15 C 0.39053(13) -0.34912(11) -0.32821(7)
C16 C 0.59151(13) -0.08359(12) -0.07757(7)
C17 C -0.00980(14) -0.13242(12) -0.23273(7)
C18 C -0.01115(13) -0.22413(11) -0.29216(7)
H8 H 0.0628 -0.2557 -0.2935
C19 C -0.12222(13) -0.26907(11) -0.34958(7)
C20 C -0.23318(13) -0.22251(11) -0.34803(7)
H9 H -0.3090 -0.2532 -0.3853
C21 C -0.22742(13) -0.12945(11) -0.28957(8)
C22 C -0.11928(14) -0.08383(12) -0.23138(8)
H10 H -0.1198 -0.0221 -0.1923
C23 C 0.11209(15) -0.07813(12) -0.17248(8)
C24 C -0.12505(13) -0.36541(11) -0.41455(7)
C25 C 0.46584(14) -0.37239(13) -0.54349(9)
H11 H 0.4748 -0.4392 -0.5335
C26 C 0.54026(15) -0.33706(14) -0.58946(10)
H12 H 0.6010 -0.3770 -0.6072
C27 C 0.52230(16) -0.24298(14) -0.60786(9)
H13 H 0.5673 -0.2203 -0.6404
C28 C 0.43565(15) -0.18091(12) -0.57744(8)
C29 C 0.41345(18) -0.07984(13) -0.59316(9)
H14 H 0.4554 -0.0554 -0.6262
C30 C 0.33354(17) -0.02020(13) -0.56114(9)
H15 H 0.3186 0.0436 -0.5734
C31 C 0.27102(16) -0.05236(12) -0.50876(9)
C32 C 0.19317(18) 0.01179(14) -0.47029(11)
H16 H 0.1777 0.0773 -0.4801
C33 C 0.14094(19) -0.02157(15) -0.41928(12)
H17 H 0.0917 0.0215 -0.3925
C34 C 0.16265(18) -0.12295(15) -0.40755(11)
H18 H 0.1266 -0.1454 -0.3722
C35 C 0.28637(14) -0.15335(11) -0.49348(8)
C36 C 0.36976(14) -0.21926(11) -0.52928(7)
C37 C 0.6755(2) -0.77364(19) 0.00999(15)
H19 H 0.6923 -0.8396 -0.0191
C38 C 0.7794(3) -0.6978(2) 0.06659(18)
H20 H 0.8631 -0.7137 0.0748
C39 C 0.7562(3) -0.6033(2) 0.10806(15)
H21 H 0.8241 -0.5536 0.1461
C40 C 0.6327(3) -0.57677(19) 0.09600(12)
C41 C 0.5973(3) -0.4765(2) 0.13714(14)
H22 H 0.6610 -0.4244 0.1763
C42 C 0.4795(4) -0.4549(2) 0.12206(14)
H23 H 0.4639 -0.3867 0.1490
C43 C 0.3751(3) -0.53392(16) 0.06528(11)
C44 C 0.2487(3) -0.5171(2) 0.04891(14)
H24 H 0.2301 -0.4489 0.0736
C45 C 0.1515(2) -0.59862(19) -0.00261(14)
H25 H 0.0655 -0.5882 -0.0132
C46 C 0.18405(19) -0.69922(16) -0.03946(11)
H26 H 0.1169 -0.7560 -0.0743
C47 C 0.4018(2) -0.63617(14) 0.02461(9)
C48 C 0.5313(2) -0.65710(14) 0.03880(9)
H28 H 0.565(5) -0.875(4) -0.180(3)
Pr1A Pr -0.195480(6) -0.588450(6) -0.542850(4)
Pr2_2 Pr 0.351420(7) 0.085640(6) -0.097290(4)
Pr2A Pr 0.648580(7) -0.085640(6) 0.097290(4)
O1A O 0.08795(10) -0.38585(8) -0.56681(5)
O9_2 O 0.51146(10) -1.02362(9) -0.08847(6)
O10A O 0.33172(10) -0.93422(9) 0.01781(5)
O13_2 O 0.10493(11) -1.00527(10) -0.11617(6)
O14_2 O 0.22008(11) -1.10204(10) -0.18278(7)
O16A O 0.23658(9) -0.57462(8) -0.54723(5)
O20 O -0.9294(3) -0.0871(3) -0.9705(2)
H27? H -1.0083(10) -0.0702(16) -0.9870(17)
H29? H -0.9818(12) -0.0531(19) -0.9418(9)
loop_
_geom_bond_atom_site_label_1
_geom_bond_atom_site_label_2
_geom_bond_site_symmetry_1
_geom_bond_site_symmetry_2
Pr1 O2 1_555 1_555
Pr2 O4 1_555 1_555
O1 C7 1_555 1_555
O2 C7 1_555 1_555
O3 C8 1_555 1_555
O4 C8 1_555 1_555
O5 N1 1_555 1_555
O6 N1 1_555 1_555
O7 Pr1 1_555 1_555
O8 Pr1 1_555 1_555
O9 C16 1_555 1_555
O10 C16 1_555 1_555
O11 N2 1_555 1_555
O12 N2 1_555 1_555
O13 C23 1_555 1_555
O14 C23 1_555 1_555
O15 Pr1 1_555 1_555
O16 C24 1_555 1_555
O17 N3 1_555 1_555
O18 N3 1_555 1_555
O19 Pr2 1_555 1_555
H1 O19 1_555 1_555
N1 C5 1_555 1_555
N2 C13 1_555 1_555
N3 C21 1_555 1_555
N4 Pr1 1_555 1_555
N5 Pr1 1_555 1_555
N6 Pr2 1_555 1_555
N7 Pr2 1_555 1_555
C1 C2 1_555 1_555
C2 H2 1_555 1_555
C3 C2 1_555 1_555
C4 C3 1_555 1_555
H3 C4 1_555 1_555
C5 C4 1_555 1_555
C6 C1 1_555 1_555
H4 C6 1_555 1_555
C7 C1 1_555 1_555
C8 C3 1_555 1_555
C9 C10 1_555 1_555
C10 H5 1_555 1_555
C11 C10 1_555 1_555
C12 C11 1_555 1_555
H6 C12 1_555 1_555
C13 C12 1_555 1_555
C14 C9 1_555 1_555
H7 C14 1_555 1_555
C15 O7 1_555 1_555
C16 C11 1_555 1_555
C17 C18 1_555 1_555
C18 H8 1_555 1_555
C19 C18 1_555 1_555
C20 C19 1_555 1_555
H9 C20 1_555 1_555
C21 C20 1_555 1_555
C22 C17 1_555 1_555
H10 C22 1_555 1_555
C23 C17 1_555 1_555
C24 O15 1_555 1_555
C25 N5 1_555 1_555
H11 C25 1_555 1_555
C26 C25 1_555 1_555
H12 C26 1_555 1_555
C27 C26 1_555 1_555
H13 C27 1_555 1_555
C28 C27 1_555 1_555
C29 C28 1_555 1_555
H14 C29 1_555 1_555
C30 C29 1_555 1_555
H15 C30 1_555 1_555
C31 C30 1_555 1_555
C32 C31 1_555 1_555
H16 C32 1_555 1_555
C33 C32 1_555 1_555
H17 C33 1_555 1_555
C34 N4 1_555 1_555
H18 C34 1_555 1_555
C35 N4 1_555 1_555
C36 N5 1_555 1_555
C37 N6 1_555 1_555
H19 C37 1_555 1_555
C38 C37 1_555 1_555
H20 C38 1_555 1_555
C39 C38 1_555 1_555
H21 C39 1_555 1_555
C40 C39 1_555 1_555
C41 C40 1_555 1_555
H22 C41 1_555 1_555
C42 C41 1_555 1_555
H23 C42 1_555 1_555
C43 C42 1_555 1_555
C44 C43 1_555 1_555
H24 C44 1_555 1_555
C45 C44 1_555 1_555
H25 C45 1_555 1_555
C46 N7 1_555 1_555
H26 C46 1_555 1_555
C47 N7 1_555 1_555
C48 N6 1_555 1_555
H28 O19 1_555 1_555
Pr1A O1 1_555 1_555
Pr2_2 O9 1_555 1_555
Pr2A O10 1_555 1_555
O1A Pr1 1_555 1_555
O9_2 Pr2 1_555 1_555
O10A Pr2 1_555 1_555
O13_2 Pr2 1_555 1_555
O14_2 Pr2 1_555 1_555
O16A Pr1 1_555 1_555
O8 C15 1_555 1_555
O13 Pr2_2 1_555 1_555
O14 Pr2_2 1_555 1_555
O16 Pr1A 1_555 1_555
C5 C6 1_555 1_555
C9 C15 1_555 1_555
C13 C14 1_555 1_555
C19 C24 1_555 1_555
C21 C22 1_555 1_555
C28 C36 1_555 1_555
C31 C35 1_555 1_555
C33 C34 1_555 1_555
C35 C36 1_555 1_555
C40 C48 1_555 1_555
C43 C47 1_555 1_555
C45 C46 1_555 1_555
C47 C48 1_555 1_555

#END
