
#######################################################################
#
#                 Cambridge Crystallographic Data Centre
#                                CCDC 
#
#######################################################################
#
# If this CIF has been generated from an entry in the Cambridge 
# Structural Database, then it will include bibliographic, chemical, 
# crystal, experimental, refinement or atomic coordinate data resulting 
# from the CCDC's data processing and validation procedures.
#
#######################################################################

data_YOGSAP
_symmetry_cell_setting           triclinic
_symmetry_space_group_name_H-M   'P -1'
_symmetry_Int_Tables_number      2
_space_group_name_Hall           '-P 1'
loop_
_symmetry_equiv_pos_site_id
_symmetry_equiv_pos_as_xyz
1 x,y,z
2 -x,-y,-z
_cell_length_a                   10.472(2)
_cell_length_b                   12.322(3)
_cell_length_c                   19.465(4)
_cell_angle_alpha                105.86(3)
_cell_angle_beta                 100.22(3)
_cell_angle_gamma                100.17(3)
_cell_volume                     2309.57
loop_
_atom_site_label
_atom_site_type_symbol
_atom_site_fract_x
_atom_site_fract_y
_atom_site_fract_z
Yb1 Yb -0.195640(6) -0.093320(5) 0.457390(3)
Yb2 Yb -0.356500(7) 0.410080(6) 0.096280(3)
O1 O 0.21639(11) -0.06908(10) 0.45554(6)
O2 O -0.00460(12) -0.12593(10) 0.42690(6)
O3 O -0.23286(13) -0.41262(12) 0.18130(8)
O4 O -0.11906(13) -0.50818(11) 0.11320(6)
O5 O 0.32762(16) -0.50712(15) 0.23838(10)
O6 O 0.43928(12) -0.37176(12) 0.33841(8)
O7 O -0.40352(12) -0.08791(11) 0.38984(6)
O8 O -0.27976(12) -0.18978(12) 0.33127(7)
O9 O -0.50390(12) -0.47934(11) 0.08677(7)
O10 O -0.65779(12) -0.43328(11) 0.01297(6)
O11 O -0.91272(15) -0.17490(18) 0.14045(10)
O12 O -0.81564(19) -0.04785(18) 0.24379(12)
O13 O -0.23866(13) 0.34548(11) 0.18225(6)
O14 O -0.34307(14) 0.30489(14) 0.26552(7)
O15 O -0.13811(12) 0.05513(11) 0.40696(6)
O16 O 0.08472(12) 0.10811(10) 0.43606(6)
O17 O 0.29395(16) 0.20678(19) 0.24622(9)
O18 O 0.16926(17) 0.23619(17) 0.15695(8)
O19 O -0.48944(13) 0.37709(14) 0.17330(8)
N1 N 0.33764(15) -0.41841(13) 0.28905(9)
N2 N -0.81677(16) -0.13011(15) 0.19230(9)
N3 N 0.19010(17) 0.22207(15) 0.21734(9)
N4 N -0.36791(14) -0.17575(13) 0.51674(8)
N5 N -0.22501(15) -0.30725(13) 0.44511(8)
N6 N -0.55433(19) 0.25966(15) 0.00977(10)
N7 N -0.30373(17) 0.22596(13) 0.02988(8)
C1 C 0.11177(16) -0.23098(14) 0.34883(8)
C2 C -0.00106(16) -0.27926(15) 0.28973(9)
H1 H -0.0765 -0.2492 0.2902
C3 C 0.00037(17) -0.37254(14) 0.23031(9)
C4 C 0.11163(18) -0.41800(15) 0.22990(9)
H2 H 0.1134 -0.4805 0.1907
C5 C 0.22047(16) -0.36821(15) 0.28930(9)
C6 C 0.22510(16) -0.27493(14) 0.34872(9)
H3 H 0.3010 -0.2427 0.3872
C7 C 0.10740(16) -0.13461(13) 0.41506(8)
C8 C -0.12322(18) -0.43323(15) 0.17038(9)
C9 C -0.49047(17) -0.18912(14) 0.26194(9)
C10 C -0.48500(17) -0.27828(14) 0.20159(8)
H4 H -0.4115 -0.3110 0.2035
C11 C -0.58797(16) -0.31886(14) 0.13862(8)
C12 C -0.69702(17) -0.26971(15) 0.13502(9)
H5 H -0.7668 -0.2966 0.0931
C13 C -0.70019(16) -0.17973(15) 0.19516(9)
C14 C -0.59964(16) -0.13743(15) 0.25898(9)
H6 H -0.6042 -0.0768 0.2986
C15 C -0.38399(17) -0.15297(15) 0.33144(9)
C16 C -0.58199(16) -0.41785(14) 0.07447(8)
C17 C -0.13061(16) 0.26295(14) 0.26394(9)
C18 C -0.13516(16) 0.20861(14) 0.31781(9)
H7 H -0.2092 0.2025 0.3380
C19 C -0.02848(16) 0.16328(14) 0.34148(8)
C20 C 0.08380(17) 0.17201(15) 0.31112(9)
H8 H 0.1568 0.1446 0.3276
C21 C 0.08196(17) 0.22279(16) 0.25581(9)
C22 C -0.02146(18) 0.26999(15) 0.23284(9)
H9 H -0.0179 0.3062 0.1969
C23 C -0.24770(17) 0.30842(15) 0.23582(9)
C24 C -0.02897(17) 0.10402(14) 0.39991(8)
C25 C -0.45115(18) -0.11718(16) 0.54555(10)
H10 H -0.4571 -0.0481 0.5359
C26 C -0.5306(2) -0.15410(19) 0.58983(11)
H11 H -0.5913 -0.1128 0.6064
C27 C -0.5172(2) -0.25094(18) 0.60794(11)
H12 H -0.5648 -0.2744 0.6395
C28 C -0.42968(19) -0.31619(16) 0.57813(10)
C29 C -0.4124(2) -0.42003(18) 0.59343(11)
H13 H -0.4555 -0.4449 0.6262
C30 C -0.3341(2) -0.48213(17) 0.56068(11)
H14 H -0.3230 -0.5489 0.5722
C31 C -0.2670(2) -0.44931(16) 0.50867(11)
C32 C -0.1939(2) -0.51492(18) 0.46997(13)
H15 H -0.1811 -0.5831 0.4789
C33 C -0.1405(2) -0.47940(19) 0.41854(14)
H16 H -0.0926 -0.5237 0.3912
C34 C -0.1589(2) -0.37616(18) 0.40773(12)
H17 H -0.1229 -0.3534 0.3721
C35 C -0.28023(17) -0.34533(15) 0.49493(9)
C36 C -0.36194(17) -0.27567(15) 0.53115(9)
C37 C -0.6765(3) 0.2761(2) -0.00129(18)
H18 H -0.6922 0.3415 0.0302
C38 C -0.7837(3) 0.2012(3) -0.0575(2)
H19 H -0.8678 0.2170 -0.0635
C39 C -0.7620(3) 0.1060(3) -0.10256(19)
H20 H -0.8313 0.0564 -0.1412
C40 C -0.6355(3) 0.0802(2) -0.09212(14)
C41 C -0.6042(4) -0.0209(3) -0.13539(17)
H21 H -0.6704 -0.0735 -0.1745
C42 C -0.4852(4) -0.0426(3) -0.12207(16)
H22 H -0.4715 -0.1117 -0.1504
C43 C -0.3744(3) 0.03836(19) -0.06423(12)
C44 C -0.2454(3) 0.0226(2) -0.04870(15)
H23 H -0.2249 -0.0457 -0.0733
C45 C -0.1520(3) 0.1083(2) 0.00245(15)
H24 H -0.0651 0.0993 0.0126
C46 C -0.1794(2) 0.20902(18) 0.04061(11)
H25 H -0.1103 0.2671 0.0748
C47 C -0.4020(2) 0.14166(17) -0.02236(10)
C48 C -0.5345(2) 0.16198(18) -0.03456(11)
H26 H -0.546(2) 0.410(2) 0.1851(13)
H27 H -0.463(2) 0.362(2) 0.2080(13)
Yb1A Yb 0.195640(6) 0.093320(5) 0.542610(3)
Yb2_2 Yb -0.356500(7) -0.589920(6) 0.096280(3)
Yb2A Yb -0.643500(7) -0.410080(6) -0.096280(3)
O1A O -0.21639(11) 0.06908(10) 0.54446(6)
O3_2 O -0.23286(13) 0.58738(12) 0.18130(8)
O4_2 O -0.11906(13) 0.49182(11) 0.11320(6)
O9_2 O -0.50390(12) 0.52066(11) 0.08677(7)
O10A O -0.34221(12) 0.43328(11) -0.01297(6)
O16A O -0.08472(12) -0.10811(10) 0.56394(6)
O20 O -0.9229(5) -0.5704(4) 0.0313(2)
H28 H -0.9910(14) -0.585(3) -0.0092(7)
H29 H -0.899(2) -0.6243(9) 0.0521(9)
loop_
_geom_bond_atom_site_label_1
_geom_bond_atom_site_label_2
_geom_bond_site_symmetry_1
_geom_bond_site_symmetry_2
Yb1 O2 1_555 1_555
Yb2 O13 1_555 1_555
O1 C7 1_555 1_555
O2 C7 1_555 1_555
O3 C8 1_555 1_555
O4 C8 1_555 1_555
O5 N1 1_555 1_555
O6 N1 1_555 1_555
O7 Yb1 1_555 1_555
O8 Yb1 1_555 1_555
O9 C16 1_555 1_555
O10 C16 1_555 1_555
O11 N2 1_555 1_555
O12 N2 1_555 1_555
O13 C23 1_555 1_555
O14 C23 1_555 1_555
O15 Yb1 1_555 1_555
O16 C24 1_555 1_555
O17 N3 1_555 1_555
O18 N3 1_555 1_555
O19 Yb2 1_555 1_555
N1 C5 1_555 1_555
N2 C13 1_555 1_555
N3 C21 1_555 1_555
N4 Yb1 1_555 1_555
N5 Yb1 1_555 1_555
N6 Yb2 1_555 1_555
N7 Yb2 1_555 1_555
C1 C2 1_555 1_555
C2 H1 1_555 1_555
C3 C2 1_555 1_555
C4 C3 1_555 1_555
H2 C4 1_555 1_555
C5 C4 1_555 1_555
C6 C1 1_555 1_555
H3 C6 1_555 1_555
C7 C1 1_555 1_555
C8 C3 1_555 1_555
C9 C10 1_555 1_555
C10 H4 1_555 1_555
C11 C10 1_555 1_555
C12 C11 1_555 1_555
H5 C12 1_555 1_555
C13 C12 1_555 1_555
C14 C9 1_555 1_555
H6 C14 1_555 1_555
C15 O7 1_555 1_555
C16 C11 1_555 1_555
C17 C18 1_555 1_555
C18 H7 1_555 1_555
C19 C18 1_555 1_555
C20 C19 1_555 1_555
H8 C20 1_555 1_555
C21 C20 1_555 1_555
C22 C17 1_555 1_555
H9 C22 1_555 1_555
C23 C17 1_555 1_555
C24 O15 1_555 1_555
C25 N4 1_555 1_555
H10 C25 1_555 1_555
C26 C25 1_555 1_555
H11 C26 1_555 1_555
C27 C26 1_555 1_555
H12 C27 1_555 1_555
C28 C27 1_555 1_555
C29 C28 1_555 1_555
H13 C29 1_555 1_555
C30 C29 1_555 1_555
H14 C30 1_555 1_555
C31 C30 1_555 1_555
C32 C31 1_555 1_555
H15 C32 1_555 1_555
C33 C32 1_555 1_555
H16 C33 1_555 1_555
C34 N5 1_555 1_555
H17 C34 1_555 1_555
C35 N5 1_555 1_555
C36 N4 1_555 1_555
C37 N6 1_555 1_555
H18 C37 1_555 1_555
C38 C37 1_555 1_555
H19 C38 1_555 1_555
C39 C38 1_555 1_555
H20 C39 1_555 1_555
C40 C39 1_555 1_555
C41 C40 1_555 1_555
H21 C41 1_555 1_555
C42 C41 1_555 1_555
H22 C42 1_555 1_555
C43 C42 1_555 1_555
C44 C43 1_555 1_555
H23 C44 1_555 1_555
C45 C44 1_555 1_555
H24 C45 1_555 1_555
C46 N7 1_555 1_555
H25 C46 1_555 1_555
C47 N7 1_555 1_555
C48 N6 1_555 1_555
H26 O19 1_555 1_555
H27 O19 1_555 1_555
O20 H28 1_555 1_555
H29 O20 1_555 1_555
Yb1A O1 1_555 1_555
Yb2_2 O3 1_555 1_555
Yb2A O10 1_555 1_555
O1A Yb1 1_555 1_555
O3_2 Yb2 1_555 1_555
O4_2 Yb2 1_555 1_555
O9_2 Yb2 1_555 1_555
O10A Yb2 1_555 1_555
O16A Yb1 1_555 1_555
O4 Yb2_2 1_555 1_555
O8 C15 1_555 1_555
O9 Yb2_2 1_555 1_555
O16 Yb1A 1_555 1_555
C5 C6 1_555 1_555
C9 C15 1_555 1_555
C13 C14 1_555 1_555
C19 C24 1_555 1_555
C21 C22 1_555 1_555
C28 C36 1_555 1_555
C31 C35 1_555 1_555
C33 C34 1_555 1_555
C35 C36 1_555 1_555
C40 C48 1_555 1_555
C43 C47 1_555 1_555
C45 C46 1_555 1_555
C47 C48 1_555 1_555

#END
