
#######################################################################
#
#                 Cambridge Crystallographic Data Centre
#                                CCDC 
#
#######################################################################
#
# If this CIF has been generated from an entry in the Cambridge 
# Structural Database, then it will include bibliographic, chemical, 
# crystal, experimental, refinement or atomic coordinate data resulting 
# from the CCDC's data processing and validation procedures.
#
#######################################################################

data_YOHCOP
_symmetry_cell_setting           triclinic
_symmetry_space_group_name_H-M   'P -1'
_symmetry_Int_Tables_number      2
_space_group_name_Hall           '-P 1'
loop_
_symmetry_equiv_pos_site_id
_symmetry_equiv_pos_as_xyz
1 x,y,z
2 -x,-y,-z
_cell_length_a                   10.779(2)
_cell_length_b                   11.507(2)
_cell_length_c                   11.991(2)
_cell_angle_alpha                65.16(3)
_cell_angle_beta                 78.17(3)
_cell_angle_gamma                79.58(3)
_cell_volume                     1313.49
loop_
_atom_site_label
_atom_site_type_symbol
_atom_site_fract_x
_atom_site_fract_y
_atom_site_fract_z
Dy1 Dy 0.44231(2) 0.15732(2) 0.03492(2)
Cu1 Cu 0.38444(6) 0.12948(6) 0.37382(6)
O1 O 0.2301(4) 0.2434(4) 0.3290(4)
O2 O 0.2822(3) 0.2493(4) 0.1386(4)
O3 O 0.1546(4) 0.6890(4) 0.0849(4)
O4 O 0.4438(3) -0.1572(3) -0.1776(3)
O5 O 0.2532(3) 0.1601(4) -0.0425(4)
O6 O 0.4067(3) 0.0196(3) -0.0682(3)
O7 O 0.6431(3) 0.0163(3) -0.2061(3)
O8 O 0.6504(3) 0.2210(3) -0.0898(3)
O9 O 0.4953(3) 0.2528(3) -0.1922(3)
O10 O 0.4543(4) 0.3857(4) -0.0311(4)
O11 O 0.4442(4) -0.0333(4) -0.3740(3)
O12 O 0.2930(3) 0.5182(4) 0.1082(4)
O13 O 0.6896(4) 0.0187(4) -0.3953(4)
C1 C 0.3937(5) -0.0686(5) -0.2636(5)
C2 C 0.7037(5) 0.2749(5) -0.3063(5)
C3 C 0.8253(5) 0.2283(5) -0.4756(5)
H1 H 0.8466 0.1748 -0.5187
C4 C 0.7362(5) 0.1934(5) -0.3670(5)
C5 C 0.6106(5) 0.2465(4) -0.1902(5)
C6 C 0.2970(5) 0.0753(5) -0.0835(5)
C7 C 0.2111(5) 0.2806(5) 0.2190(5)
C8 C 0.6846(5) 0.0663(5) -0.3180(5)
C9 C 0.2602(5) -0.0092(5) -0.2390(5)
C10 C -0.0464(5) 0.5595(5) 0.1213(5)
H2 H -0.0579 0.6489 0.0928
C11 C 0.1842(5) 0.5668(5) 0.1102(5)
C12 C 0.0877(5) 0.3623(5) 0.1872(5)
C13 C 0.0531(6) 0.0342(6) -0.2988(7)
H3 H -0.0016 0.0322 -0.3486
C14 C 0.8461(5) 0.4205(6) -0.4567(5)
H4 H 0.8824 0.4973 -0.4862
C15 C 0.2162(5) 0.0482(5) -0.1549(5)
C16 C 0.7577(5) 0.3885(5) -0.3513(5)
H5 H 0.7343 0.4438 -0.3102
C17 C -0.0154(5) 0.2970(6) 0.2065(5)
H6 H -0.0053 0.2076 0.2353
C18 C 0.0901(5) 0.0941(6) -0.1430(6)
H7 H 0.0595 0.1331 -0.0873
C19 C 0.0735(5) 0.4953(5) 0.1420(5)
C20 C -0.1323(5) 0.3634(6) 0.1833(5)
H8 H -0.2015 0.3192 0.1958
C21 C 0.8817(6) 0.3406(6) -0.5194(5)
H9 H 0.9427 0.3619 -0.5900
C22 C -0.1478(5) 0.4941(6) 0.1419(6)
H10 H -0.2279 0.5388 0.1277
C23 C 0.3789(6) 0.2723(5) 0.5194(5)
H11 H 0.3185 0.2165 0.5698
C24 C 0.4889(5) 0.4483(5) 0.4835(5)
C25 C 0.0085(6) 0.0843(7) -0.2099(8)
H12 H -0.0778 0.1113 -0.1959
C26 C 0.4023(6) 0.3625(5) 0.5562(5)
H13 H 0.3595 0.3659 0.6307
C27 C 0.1786(6) -0.0124(6) -0.3128(6)
H14 H 0.2095 -0.0464 -0.3723
C28 C 0.5476(6) 0.4354(6) 0.3759(6)
H15 H 0.6061 0.4918 0.3223
N1 N 0.4367(4) 0.2600(4) 0.4169(4)
C29 C 0.5213(6) 0.3405(6) 0.3463(7)
H16 H 0.5646 0.3327 0.2738
H17 H 0.226(4) 0.727(6) 0.069(6)
H18 H 0.411(4) 0.403(6) 0.028(4)
H19 H 0.529(2) 0.405(6) -0.038(5)
C23A C 0.6211(6) 0.7277(5) 0.4806(5)
H11A H 0.6815 0.7835 0.4302
C24A C 0.5111(5) 0.5517(5) 0.5165(5)
C26A C 0.5977(6) 0.6375(5) 0.4438(5)
H13A H 0.6405 0.6341 0.3693
C28A C 0.4524(6) 0.5646(6) 0.6241(6)
H15A H 0.3939 0.5082 0.6777
N1A N 0.5633(4) 0.7400(4) 0.5831(4)
C29A C 0.4787(6) 0.6595(6) 0.6537(7)
H16A H 0.4354 0.6673 0.7262
Dy1A Dy 0.55769(2) -0.15732(2) -0.03492(2)
Cu1A Cu 0.61556(6) -0.12948(6) -0.37382(6)
O1A O 0.7699(4) -0.2434(4) -0.3290(4)
O2A O 0.7178(3) -0.2493(4) -0.1386(4)
O3A O 0.8454(4) -0.6890(4) -0.0849(4)
O4A O 0.5562(3) 0.1572(3) 0.1776(3)
O5A O 0.7468(3) -0.1601(4) 0.0425(4)
O6A O 0.5933(3) -0.0196(3) 0.0682(3)
O7A O 0.3569(3) -0.0163(3) 0.2061(3)
O8A O 0.3496(3) -0.2210(3) 0.0898(3)
O9A O 0.5047(3) -0.2528(3) 0.1922(3)
O10A O 0.5457(4) -0.3857(4) 0.0311(4)
O11A O 0.5558(4) 0.0333(4) 0.3740(3)
O12A O 0.7070(3) -0.5182(4) -0.1082(4)
O13A O 0.3104(4) -0.0187(4) 0.3953(4)
C1A C 0.6063(5) 0.0686(5) 0.2636(5)
C2A C 0.2963(5) -0.2749(5) 0.3063(5)
C3A C 0.1747(5) -0.2283(5) 0.4756(5)
H1A H 0.1534 -0.1748 0.5187
C4A C 0.2638(5) -0.1934(5) 0.3670(5)
C5A C 0.3894(5) -0.2465(4) 0.1902(5)
C6A C 0.7030(5) -0.0753(5) 0.0835(5)
C7A C 0.7889(5) -0.2806(5) -0.2190(5)
C8A C 0.3154(5) -0.0663(5) 0.3180(5)
C9A C 0.7398(5) 0.0092(5) 0.2390(5)
C10A C 1.0464(5) -0.5595(5) -0.1213(5)
H2A H 1.0579 -0.6489 -0.0928
C11A C 0.8158(5) -0.5668(5) -0.1102(5)
C12A C 0.9123(5) -0.3623(5) -0.1872(5)
C13A C 0.9469(6) -0.0342(6) 0.2988(7)
H3A H 1.0016 -0.0322 0.3486
C14A C 0.1539(5) -0.4205(6) 0.4567(5)
H4A H 0.1176 -0.4973 0.4862
C15A C 0.7838(5) -0.0482(5) 0.1549(5)
C16A C 0.2423(5) -0.3885(5) 0.3513(5)
H5A H 0.2657 -0.4438 0.3102
C17A C 1.0154(5) -0.2970(6) -0.2065(5)
H6A H 1.0053 -0.2076 -0.2353
C18A C 0.9099(5) -0.0941(6) 0.1430(6)
H7A H 0.9405 -0.1331 0.0873
C19A C 0.9265(5) -0.4953(5) -0.1420(5)
C20A C 1.1323(5) -0.3634(6) -0.1833(5)
H8A H 1.2015 -0.3192 -0.1958
C21A C 0.1183(6) -0.3406(6) 0.5194(5)
H9A H 0.0573 -0.3619 0.5900
C22A C 1.1478(5) -0.4941(6) -0.1419(6)
H10A H 1.2279 -0.5388 -0.1277
C25A C 0.9915(6) -0.0843(7) 0.2099(8)
H12A H 1.0778 -0.1113 0.1959
C27A C 0.8214(6) 0.0124(6) 0.3128(6)
H14A H 0.7905 0.0464 0.3723
H17A H 0.774(4) -0.727(6) -0.069(6)
H18A H 0.589(4) -0.403(6) -0.028(4)
H19A H 0.471(2) -0.405(6) 0.038(5)
Cu1A_2 Cu 0.61556(6) 0.87052(6) 0.62618(6)
N1A_2 N 0.5633(4) -0.2600(4) -0.4169(4)
loop_
_geom_bond_atom_site_label_1
_geom_bond_atom_site_label_2
_geom_bond_site_symmetry_1
_geom_bond_site_symmetry_2
Dy1 O2 1_555 1_555
Cu1 O1 1_555 1_555
O1 C7 1_555 1_555
O2 C7 1_555 1_555
O3 C11 1_555 1_555
O4 C1 1_555 1_555
O5 Dy1 1_555 1_555
O6 Dy1 1_555 1_555
O7 C8 1_555 1_555
O8 Dy1 1_555 1_555
O9 Dy1 1_555 1_555
O10 Dy1 1_555 1_555
O11 C1 1_555 1_555
O12 C11 1_555 1_555
O13 C8 1_555 1_555
C1 C9 1_555 1_555
C2 C4 1_555 1_555
C3 H1 1_555 1_555
C4 C3 1_555 1_555
C5 O8 1_555 1_555
C6 O5 1_555 1_555
C7 C12 1_555 1_555
C8 C4 1_555 1_555
C9 C15 1_555 1_555
C10 H2 1_555 1_555
C11 C19 1_555 1_555
C12 C17 1_555 1_555
C13 H3 1_555 1_555
C14 H4 1_555 1_555
C15 C6 1_555 1_555
C16 C2 1_555 1_555
H5 C16 1_555 1_555
C17 H6 1_555 1_555
C18 C15 1_555 1_555
H7 C18 1_555 1_555
C19 C10 1_555 1_555
C20 C17 1_555 1_555
H8 C20 1_555 1_555
C21 C3 1_555 1_555
H9 C21 1_555 1_555
C22 C10 1_555 1_555
H10 C22 1_555 1_555
C23 H11 1_555 1_555
C24 C26 1_555 1_555
C25 C13 1_555 1_555
H12 C25 1_555 1_555
C26 C23 1_555 1_555
H13 C26 1_555 1_555
C27 C9 1_555 1_555
H14 C27 1_555 1_555
C28 C24 1_555 1_555
H15 C28 1_555 1_555
N1 Cu1 1_555 1_555
C29 C28 1_555 1_555
H16 C29 1_555 1_555
H17 O3 1_555 1_555
H18 O10 1_555 1_555
H19 O10 1_555 1_555
C23A H11A 1_555 1_555
C24A C24 1_555 1_555
C26A C23A 1_555 1_555
H13A C26A 1_555 1_555
C28A C24A 1_555 1_555
H15A C28A 1_555 1_555
N1A C23A 1_555 1_555
C29A C28A 1_555 1_555
H16A C29A 1_555 1_555
Dy1A O4 1_555 1_555
Cu1A O4 1_555 1_555
O1A Cu1A 1_555 1_555
O2A Dy1A 1_555 1_555
O3A C11A 1_555 1_555
O4A Dy1 1_555 1_555
O5A Dy1A 1_555 1_555
O6A Dy1 1_555 1_555
O7A Dy1 1_555 1_555
O8A Dy1A 1_555 1_555
O9A Dy1A 1_555 1_555
O10A Dy1A 1_555 1_555
O11A Cu1 1_555 1_555
O12A C11A 1_555 1_555
O13A Cu1 1_555 1_555
C1A O4A 1_555 1_555
C2A C4A 1_555 1_555
C3A H1A 1_555 1_555
C4A C3A 1_555 1_555
C5A O8A 1_555 1_555
C6A O5A 1_555 1_555
C7A O1A 1_555 1_555
C8A O7A 1_555 1_555
C9A C1A 1_555 1_555
C10A H2A 1_555 1_555
C11A C19A 1_555 1_555
C12A C7A 1_555 1_555
C13A H3A 1_555 1_555
C14A H4A 1_555 1_555
C15A C6A 1_555 1_555
C16A C2A 1_555 1_555
H5A C16A 1_555 1_555
C17A C12A 1_555 1_555
H6A C17A 1_555 1_555
C18A C15A 1_555 1_555
H7A C18A 1_555 1_555
C19A C10A 1_555 1_555
C20A C17A 1_555 1_555
H8A C20A 1_555 1_555
C21A C3A 1_555 1_555
H9A C21A 1_555 1_555
C22A C10A 1_555 1_555
H10A C22A 1_555 1_555
C25A C13A 1_555 1_555
H12A C25A 1_555 1_555
C27A C9A 1_555 1_555
H14A C27A 1_555 1_555
H17A O3A 1_555 1_555
H18A O10A 1_555 1_555
H19A O10A 1_555 1_555
Cu1A_2 N1A 1_555 1_555
N1A_2 Cu1A 1_555 1_555
Cu1 O4A 1_555 1_555
O6 C6 1_555 1_555
O6 Dy1A 1_555 1_555
O7 Dy1A 1_555 1_555
O9 C5 1_555 1_555
O11 Cu1A 1_555 1_555
O13 Cu1A 1_555 1_555
C2 C5 1_555 1_555
C12 C19 1_555 1_555
C13 C27 1_555 1_555
C14 C16 1_555 1_555
C14 C21 1_555 1_555
C18 C25 1_555 1_555
C20 C22 1_555 1_555
C23 N1 1_555 1_555
N1 C29 1_555 1_555
C24A C26A 1_555 1_555
N1A C29A 1_555 1_555
Dy1A O6A 1_555 1_555
O2A C7A 1_555 1_555
O6A C6A 1_555 1_555
O9A C5A 1_555 1_555
O11A C1A 1_555 1_555
O13A C8A 1_555 1_555
C2A C5A 1_555 1_555
C4A C8A 1_555 1_555
C9A C15A 1_555 1_555
C12A C19A 1_555 1_555
C13A C27A 1_555 1_555
C14A C16A 1_555 1_555
C14A C21A 1_555 1_555
C18A C25A 1_555 1_555
C20A C22A 1_555 1_555

#END
