
#######################################################################
#
#                 Cambridge Crystallographic Data Centre
#                                CCDC 
#
#######################################################################
#
# If this CIF has been generated from an entry in the Cambridge 
# Structural Database, then it will include bibliographic, chemical, 
# crystal, experimental, refinement or atomic coordinate data resulting 
# from the CCDC's data processing and validation procedures.
#
#######################################################################

data_YOHKIR
_symmetry_cell_setting           orthorhombic
_symmetry_space_group_name_H-M   'I b a m'
_symmetry_Int_Tables_number      72
_space_group_name_Hall           '-I 2 2c'
loop_
_symmetry_equiv_pos_site_id
_symmetry_equiv_pos_as_xyz
1 x,y,z
2 -x,-y,z
3 1/2-x,1/2+y,-z
4 1/2+x,1/2-y,-z
5 1/2+x,1/2+y,1/2+z
6 1/2-x,1/2-y,1/2+z
7 -x,y,1/2-z
8 x,-y,1/2-z
9 -x,-y,-z
10 x,y,-z
11 1/2+x,1/2-y,z
12 1/2-x,1/2+y,z
13 1/2-x,1/2-y,1/2-z
14 1/2+x,1/2+y,1/2-z
15 x,-y,1/2+z
16 -x,y,1/2+z
_cell_length_a                   6.4005(6)
_cell_length_b                   26.426(3)
_cell_length_c                   35.016(3)
_cell_angle_alpha                90
_cell_angle_beta                 90
_cell_angle_gamma                90
_cell_volume                     5922.59
loop_
_atom_site_label
_atom_site_type_symbol
_atom_site_fract_x
_atom_site_fract_y
_atom_site_fract_z
O1 O 2.1882(9) 0.3659(2) 0.08630(17)
O2 O 1.5864(8) 0.2748(2) 0.08524(14)
C1 C 1.6975(16) 0.2941(4) 0.0000
H1 H 1.5753 0.2751 0.0000
C2 C 2.0729(16) 0.3510(4) 0.0000
H2 H 2.1952 0.3700 0.0000
C3 C 1.7344(12) 0.2986(3) 0.0734(2)
C4 C 1.7912(10) 0.3087(3) 0.03310(18)
C5 C 1.9786(12) 0.3363(3) 0.0332(2)
C6 C 2.0397(11) 0.3453(3) 0.0736(2)
N1 N 1.8795(9) 0.3229(2) 0.09591(16)
C7 C 1.8925(13) 0.3174(3) 0.1370(2)
H3 H 2.0383 0.3171 0.1445
H4 H 1.8320 0.2851 0.1443
N2 N 1.2212(11) 0.4404(3) 0.2044(2)
C8 C 1.7804(14) 0.3595(4) 0.1584(2)
Ag1 Ag 1.0000 0.44162(6) 0.2500
N3 N 1.440(3) 0.4066(8) 0.1673(5)
C9 C 1.294(4) 0.3968(10) 0.1933(6)
H5 H 1.2525 0.3651 0.2019
C10 C 1.336(3) 0.4765(7) 0.1891(5)
H6 H 1.3242 0.5109 0.1944
C11 C 1.468(3) 0.4561(7) 0.1653(6)
H7 H 1.5635 0.4731 0.1498
C12 C 1.555(3) 0.3684(7) 0.1446(5)
H8 H 1.5585 0.3793 0.1181
H9 H 1.4793 0.3366 0.1456
H10 H 1.829(11) 0.3919(15) 0.1485(19)
H11 H 1.803(12) 0.348(2) 0.1844(10)
O1I O 2.1882(9) 0.3659(2) -0.08630(17)
O2I O 1.5864(8) 0.2748(2) -0.08524(14)
C3I C 1.7344(12) 0.2986(3) -0.0734(2)
C4I C 1.7912(10) 0.3087(3) -0.03310(18)
C5I C 1.9786(12) 0.3363(3) -0.0332(2)
C6I C 2.0397(11) 0.3453(3) -0.0736(2)
N1I N 1.8795(9) 0.3229(2) -0.09591(16)
C7I C 1.8925(13) 0.3174(3) -0.1370(2)
H3I H 2.0383 0.3171 -0.1445
H4I H 1.8320 0.2851 -0.1443
N2I N 1.2212(11) 0.4404(3) -0.2044(2)
C8I C 1.7804(14) 0.3595(4) -0.1584(2)
N3I N 1.440(3) 0.4066(8) -0.1673(5)
C9I C 1.294(4) 0.3968(10) -0.1933(6)
H5I H 1.2525 0.3651 -0.2019
C10I C 1.336(3) 0.4765(7) -0.1891(5)
H6I H 1.3242 0.5109 -0.1944
C11I C 1.468(3) 0.4561(7) -0.1653(6)
H7I H 1.5635 0.4731 -0.1498
C12I C 1.555(3) 0.3684(7) -0.1446(5)
H8I H 1.5585 0.3793 -0.1181
H9I H 1.4793 0.3366 -0.1456
H10I H 1.829(11) 0.3919(15) -0.1485(19)
H11I H 1.803(12) 0.348(2) -0.1844(10)
N2F N 0.7788(11) 0.4404(3) 0.2956(2)
Ag1A Ag 1.0000 0.55838(6) 0.2500
Ag1I Ag 1.0000 0.44162(6) -0.2500
C13 C 0.960(6) 0.515(2) 0.0864(14)
C14 C 0.730(7) 0.5092(14) 0.0704(15)
F1 F 0.918(3) 0.5284(6) 0.0416(4)
F2 F 0.797(7) 0.4518(12) 0.0571(12)
O3 O 0.938(5) 0.4873(10) 0.1226(7)
F3 F 0.594(14) 0.511(4) 0.0304(17)
O4 O 1.173(5) 0.5305(14) 0.0999(10)
C13A C 1.040(6) 0.485(2) 0.0864(14)
C14A C 1.270(7) 0.4908(14) 0.0704(15)
F1A F 1.082(3) 0.4716(6) 0.0416(4)
F2A F 1.203(7) 0.5482(12) 0.0571(12)
O3A O 1.062(5) 0.5127(10) 0.1226(7)
F3A F 1.406(14) 0.489(4) 0.0304(17)
O4A O 0.827(5) 0.4695(14) 0.0999(10)
O5 O 1.065(6) 0.3176(12) 0.2449(15)
Ag2? Ag 1.0000 0.5000 0.19795(5)
N4? N 1.438(3) 0.3819(7) 0.1829(6)
C15? C 1.295(4) 0.4165(9) 0.1732(7)
H12? H 1.2517 0.4230 0.1483
C16? C 1.304(3) 0.4188(7) 0.2329(5)
H13? H 1.2781 0.4273 0.2582
C17? C 1.438(4) 0.3813(8) 0.2213(5)
H14? H 1.5137 0.3596 0.2369
C18? C 1.546(3) 0.3461(7) 0.1586(5)
H15? H 1.4902 0.3478 0.1328
H16? H 1.5258 0.3119 0.1681
O6? O 0.661(6) 0.4380(12) 0.0834(11)
O7? O 1.100(12) 0.261(3) 0.256(3)
O8? O 1.239(16) 0.226(3) 0.236(3)
O9? O 1.233(13) 0.259(3) 0.2172(19)
O10? O 0.567(7) 0.4237(17) 0.0398(13)
O11? O 0.588(6) 0.4325(13) 0.0000
O12? O 1.107(10) 0.2879(19) 0.2263(18)
O13? O 1.35(2) 0.262(5) 0.239(4)
O14? O 1.366(13) 0.271(2) 0.213(2)
O15? O 1.134(17) 0.224(4) 0.224(3)
F4? F 0.609(10) 0.456(2) 0.060(2)
loop_
_geom_bond_atom_site_label_1
_geom_bond_atom_site_label_2
_geom_bond_site_symmetry_1
_geom_bond_site_symmetry_2
O1 C6 1_555 1_555
O2 C3 1_555 1_555
C1 H1 1_555 1_555
C2 H2 1_555 1_555
C3 C4 1_555 1_555
C4 C1 1_555 1_555
C5 C2 1_555 1_555
C6 C5 1_555 1_555
N1 C3 1_555 1_555
C7 N1 1_555 1_555
H3 C7 1_555 1_555
H4 C7 1_555 1_555
N2 Ag1 1_555 1_555
C8 C7 1_555 1_555
Ag1 N2F 1_555 1_555
N3 C9 1_555 1_555
C9 N2 1_555 1_555
H5 C9 1_555 1_555
C10 N2 1_555 1_555
H6 C10 1_555 1_555
C11 N3 1_555 1_555
H7 C11 1_555 1_555
C12 C8 1_555 1_555
H8 C12 1_555 1_555
H9 C12 1_555 1_555
H10 C8 1_555 1_555
H11 C8 1_555 1_555
C13 C14 1_555 1_555
C14 F1 1_555 1_555
F2 C14 1_555 1_555
O3 C13 1_555 1_555
F3 C14 1_555 1_555
O4 C13 1_555 1_555
O1I C6I 1_555 1_555
O2I C3I 1_555 1_555
C3I C4I 1_555 1_555
C4I C1 1_555 1_555
C5I C2 1_555 1_555
C6I C5I 1_555 1_555
N1I C3I 1_555 1_555
C7I N1I 1_555 1_555
H3I C7I 1_555 1_555
H4I C7I 1_555 1_555
N2I C9I 1_555 1_555
C8I C7I 1_555 1_555
N3I C9I 1_555 1_555
C9I H5I 1_555 1_555
C10I N2I 1_555 1_555
H6I C10I 1_555 1_555
C11I N3I 1_555 1_555
H7I C11I 1_555 1_555
C12I C8I 1_555 1_555
H8I C12I 1_555 1_555
H9I C12I 1_555 1_555
H10I C8I 1_555 1_555
H11I C8I 1_555 1_555
Ag1A Ag1 1_555 1_555
Ag1I N2I 1_555 1_555
C13A C14A 1_555 1_555
C14A F1A 1_555 1_555
F2A C14A 1_555 1_555
O3A C13A 1_555 1_555
F3A C14A 1_555 1_555
O4A C13A 1_555 1_555
C4 C5 1_555 1_555
C6 N1 1_555 1_555
N3 C12 1_555 1_555
C10 C11 1_555 1_555
C4I C5I 1_555 1_555
C6I N1I 1_555 1_555
N3I C12I 1_555 1_555
C10I C11I 1_555 1_555

#END
