
#######################################################################
#
#                 Cambridge Crystallographic Data Centre
#                                CCDC 
#
#######################################################################
#
# If this CIF has been generated from an entry in the Cambridge 
# Structural Database, then it will include bibliographic, chemical, 
# crystal, experimental, refinement or atomic coordinate data resulting 
# from the CCDC's data processing and validation procedures.
#
#######################################################################

data_YOHKOX
_symmetry_cell_setting           triclinic
_symmetry_space_group_name_H-M   'P 1'
_symmetry_Int_Tables_number      1
_space_group_name_Hall           'P 1'
loop_
_symmetry_equiv_pos_site_id
_symmetry_equiv_pos_as_xyz
1 x,y,z
_cell_length_a                   22.281(9)
_cell_length_b                   5.811(2)
_cell_length_c                   5.435(2)
_cell_angle_alpha                89.53(2)
_cell_angle_beta                 85.53(1)
_cell_angle_gamma                92.61(1)
_cell_volume                     700.779
loop_
_atom_site_label
_atom_site_type_symbol
_atom_site_fract_x
_atom_site_fract_y
_atom_site_fract_z
Na1 Na 0.4339(3) 0.3634(10) 0.6135(10)
Na2 Na 0.5658(3) 0.6342(9) 0.3842(9)
O1 O 0.4606(5) 0.1477(19) 0.2681(19)
H1 H 0.4970 0.1947 0.2339
H2 H 0.4444 0.1087 0.1372
O2 O 0.5375(5) 0.8694(19) 0.738(2)
H3 H 0.5017 0.9125 0.7660
H4 H 0.5583 0.8886 0.8611
O3 O 0.5377(5) 0.357(2) 0.690(2)
H5 H 0.5525 0.3456 0.8292
H6 H 0.5375 0.2110 0.7046
O4 O 0.4611(5) 0.6711(17) 0.311(2)
H7 H 0.4429 0.6620 0.1792
H8 H 0.4613 0.8171 0.2977
O5 O 0.4010(5) 0.647(2) 0.8746(19)
O6 O 0.4089(5) 1.032(2) 0.842(2)
O7 O 0.0483(5) 0.850(2) 1.745(2)
C1 C 0.1379(7) 0.992(3) 1.505(3)
H9 H 0.1397 1.1259 1.6028
C2 C 0.1822(7) 0.960(3) 1.303(3)
C3 C 0.2305(7) 1.117(3) 1.246(3)
H10 H 0.2339 1.2520 1.3415
C4 C 0.2725(7) 1.082(3) 1.059(3)
H11 H 0.3029 1.1994 1.0193
C5 C 0.2726(7) 0.876(3) 0.920(3)
C6 C 0.2237(7) 0.720(3) 0.976(3)
H12 H 0.2202 0.5868 0.8772
C7 C 0.1802(6) 0.751(3) 1.166(3)
C8 C 0.1306(8) 0.587(4) 1.227(3)
H13 H 0.1267 0.4473 1.1381
C9 C 0.0883(7) 0.639(3) 1.420(3)
H14 H 0.0546 0.5347 1.4583
C10 C 0.0938(7) 0.828(3) 1.552(3)
C11 C 0.3209(6) 0.836(3) 0.714(3)
H15 H 0.3211 0.9722 0.6003
C12 C 0.3804(7) 0.840(3) 0.808(3)
C13 C 0.3082(7) 0.622(3) 0.553(3)
H16 H 0.2674 0.6257 0.4980
H17 H 0.3117 0.4810 0.6508
H18 H 0.3375 0.6229 0.4089
C14 C 0.0525(8) 1.046(4) 1.902(3)
H19 H 0.0189 1.0375 2.0304
H20 H 0.0506 1.1874 1.8040
H21 H 0.0907 1.0475 1.9797
O8 O 0.5869(5) 0.316(2) 0.1437(19)
O9 O 0.6036(5) -0.0646(18) 0.1311(17)
O10 O 0.9508(5) 0.318(2) -0.714(2)
C15 C 0.8587(7) 0.432(3) -0.476(3)
H22 H 0.8555 0.5650 -0.5756
C16 C 0.8146(6) 0.383(3) -0.280(3)
C17 C 0.7664(8) 0.517(3) -0.227(3)
H23 H 0.7627 0.6523 -0.3225
C18 C 0.7226(7) 0.460(3) -0.035(3)
H24 H 0.6902 0.5584 0.0024
C19 C 0.7270(7) 0.255(3) 0.101(3)
C20 C 0.7730(7) 0.122(3) 0.055(3)
H25 H 0.7759 -0.0096 0.1579
C21 C 0.8183(7) 0.166(3) -0.141(3)
C22 C 0.8672(7) 0.030(3) -0.198(3)
H26 H 0.8715 -0.1059 -0.1038
C23 C 0.9085(7) 0.088(3) -0.383(3)
H27 H 0.9407 -0.0107 -0.4213
C24 C 0.9052(7) 0.295(3) -0.525(3)
C25 C 0.6763(7) 0.198(3) 0.314(3)
H28 H 0.6712 0.3375 0.4191
C26 C 0.6157(7) 0.146(3) 0.182(3)
C27 C 0.6892(7) -0.001(3) 0.476(3)
H29 H 0.6966 -0.1366 0.3747
H30 H 0.6545 -0.0343 0.5955
H31 H 0.7248 0.0384 0.5651
C28 C 0.9494(8) 0.531(3) -0.866(3)
H32 H 0.9825 0.5337 -0.9958
H33 H 0.9539 0.6664 -0.7611
H34 H 0.9109 0.5340 -0.9411
Na1_2 Na 0.4339(3) 1.3634(10) 0.6135(10)
Na2_2 Na 0.5658(3) -0.3658(9) 0.3842(9)
O6_2 O 0.4089(5) 0.032(2) 0.842(2)
O9_2 O 0.6036(5) 0.9354(18) 0.1311(17)
loop_
_geom_bond_atom_site_label_1
_geom_bond_atom_site_label_2
_geom_bond_site_symmetry_1
_geom_bond_site_symmetry_2
Na1 O1 1_555 1_555
Na2 O2 1_555 1_555
O1 H1 1_555 1_555
H2 O1 1_555 1_555
O2 H3 1_555 1_555
H4 O2 1_555 1_555
O3 Na1 1_555 1_555
H5 O3 1_555 1_555
H6 O3 1_555 1_555
O4 Na1 1_555 1_555
H7 O4 1_555 1_555
H8 O4 1_555 1_555
O5 Na1 1_555 1_555
O6 C12 1_555 1_555
O7 C10 1_555 1_555
C1 H9 1_555 1_555
C2 C1 1_555 1_555
C3 C2 1_555 1_555
H10 C3 1_555 1_555
C4 C3 1_555 1_555
H11 C4 1_555 1_555
C5 C4 1_555 1_555
C6 C5 1_555 1_555
H12 C6 1_555 1_555
C7 C2 1_555 1_555
C8 C7 1_555 1_555
H13 C8 1_555 1_555
C9 C8 1_555 1_555
H14 C9 1_555 1_555
C10 C1 1_555 1_555
C11 C5 1_555 1_555
H15 C11 1_555 1_555
C12 O5 1_555 1_555
C13 C11 1_555 1_555
H16 C13 1_555 1_555
H17 C13 1_555 1_555
H18 C13 1_555 1_555
C14 O7 1_555 1_555
H19 C14 1_555 1_555
H20 C14 1_555 1_555
H21 C14 1_555 1_555
O8 Na2 1_555 1_555
O9 C26 1_555 1_555
O10 C24 1_555 1_555
C15 H22 1_555 1_555
C16 C15 1_555 1_555
C17 C16 1_555 1_555
H23 C17 1_555 1_555
C18 C17 1_555 1_555
H24 C18 1_555 1_555
C19 C18 1_555 1_555
C20 C19 1_555 1_555
H25 C20 1_555 1_555
C21 C16 1_555 1_555
C22 C21 1_555 1_555
H26 C22 1_555 1_555
C23 C22 1_555 1_555
H27 C23 1_555 1_555
C24 C15 1_555 1_555
C25 C19 1_555 1_555
H28 C25 1_555 1_555
C26 O8 1_555 1_555
C27 C25 1_555 1_555
H29 C27 1_555 1_555
H30 C27 1_555 1_555
H31 C27 1_555 1_555
C28 O10 1_555 1_555
H32 C28 1_555 1_555
H33 C28 1_555 1_555
H34 C28 1_555 1_555
Na1_2 O6 1_555 1_555
Na2_2 O9 1_555 1_555
O6_2 Na1 1_555 1_555
O9_2 Na2 1_555 1_555
Na2 O3 1_555 1_555
Na2 O4 1_555 1_555
C6 C7 1_555 1_555
C9 C10 1_555 1_555
C11 C12 1_555 1_555
C20 C21 1_555 1_555
C23 C24 1_555 1_555
C25 C26 1_555 1_555

#END
