
#######################################################################
#
#                 Cambridge Crystallographic Data Centre
#                                CCDC 
#
#######################################################################
#
# If this CIF has been generated from an entry in the Cambridge 
# Structural Database, then it will include bibliographic, chemical, 
# crystal, experimental, refinement or atomic coordinate data resulting 
# from the CCDC's data processing and validation procedures.
#
#######################################################################

data_YOHSEU
_symmetry_cell_setting           monoclinic
_symmetry_space_group_name_H-M   'P 21/c'
_symmetry_Int_Tables_number      14
_space_group_name_Hall           '-P 2ybc'
loop_
_symmetry_equiv_pos_site_id
_symmetry_equiv_pos_as_xyz
1 x,y,z
2 -x,1/2+y,1/2-z
3 -x,-y,-z
4 x,1/2-y,1/2+z
_cell_length_a                   14.0443(4)
_cell_length_b                   18.4893(5)
_cell_length_c                   15.6278(6)
_cell_angle_alpha                90
_cell_angle_beta                 104.025(3)
_cell_angle_gamma                90
_cell_volume                     3937.09
loop_
_atom_site_label
_atom_site_type_symbol
_atom_site_fract_x
_atom_site_fract_y
_atom_site_fract_z
Tb1 Tb 0.483133(13) 0.372898(10) 0.245286(13)
Tb2 Tb 0.145410(13) 0.633500(10) 0.183670(13)
O1 O 0.0875(2) 0.74090(17) 0.1002(2)
H1 H 0.118(5) 0.777(3) 0.129(3)
H2 H 0.084(4) 0.746(3) 0.0454(14)
O2 O -0.0293(2) 0.62444(17) 0.1472(2)
H3 H -0.048(4) 0.632(3) 0.193(2)
H4 H -0.064(5) 0.592(3) 0.117(4)
O3 O 0.3689(2) 0.47041(14) 0.20804(19)
O4 O 0.28727(19) 0.56479(13) 0.24553(19)
O5 O 0.60692(19) 0.28546(14) 0.25271(19)
O6 O 0.71567(19) 0.20368(14) 0.3223(2)
O7 O 0.3553(2) 0.28897(14) 0.2335(2)
O8 O 0.2378(2) 0.21689(16) 0.1550(2)
O9 O 0.6094(2) 0.45578(14) 0.29194(19)
O10 O 0.7422(2) 0.51387(19) 0.2757(2)
O11 O 0.1342(2) 0.58223(15) 0.0457(2)
O12 O 0.1114(2) 0.49195(16) -0.0510(2)
O13 O 0.1258(2) 0.71089(14) 0.2965(2)
O14 O 0.0950(2) 0.73661(16) 0.4267(2)
N1 N 0.4227(2) 0.42522(16) 0.3698(2)
N2 N 0.5561(2) 0.32141(16) 0.3958(2)
N3 N 0.4091(2) 0.32910(17) 0.0923(2)
N4 N 0.5575(2) 0.42037(16) 0.1261(2)
N5 N 0.1092(2) 0.49957(17) 0.1728(3)
N6 N 0.1072(2) 0.57350(17) 0.3165(2)
C1 C 0.3636(3) 0.4820(2) 0.3569(3)
C2 C 0.3298(3) 0.5150(2) 0.4251(3)
H5 H 0.2892 0.5567 0.4135
C3 C 0.3561(3) 0.4861(2) 0.5091(3)
H6 H 0.3309 0.5060 0.5552
C4 C 0.4205(3) 0.42696(19) 0.5252(3)
C5 C 0.4535(3) 0.3996(2) 0.4528(3)
C6 C 0.5262(3) 0.3426(2) 0.4675(3)
C7 C 0.5650(3) 0.3163(2) 0.5528(3)
C8 C 0.6410(3) 0.2637(2) 0.5612(3)
H7 H 0.6708 0.2437 0.6173
C9 C 0.6710(3) 0.2420(2) 0.4877(3)
H8 H 0.7215 0.2070 0.4926
C10 C 0.6267(3) 0.2717(2) 0.4062(3)
C11 C 0.4580(3) 0.3949(2) 0.6104(3)
H9 H 0.4334 0.4107 0.6588
C12 C 0.5274(3) 0.3428(2) 0.6234(3)
H10 H 0.5517 0.3235 0.6809
C13 C 0.3364(3) 0.5082(2) 0.2627(3)
C14 C 0.6534(3) 0.2519(2) 0.3206(3)
C15 C 0.3350(3) 0.2822(2) 0.0784(3)
C16 C 0.2906(3) 0.2556(2) -0.0049(3)
H11 H 0.2377 0.2223 -0.0124
C17 C 0.3240(3) 0.2780(2) -0.0770(3)
H12 H 0.2939 0.2606 -0.1343
C18 C 0.4034(3) 0.3272(2) -0.0642(3)
C19 C 0.4414(3) 0.35081(19) 0.0209(3)
C20 C 0.5236(3) 0.4003(2) 0.0414(3)
C21 C 0.5657(3) 0.4250(2) -0.0268(3)
C22 C 0.6452(3) 0.4727(2) -0.0021(3)
H13 H 0.6758 0.4913 -0.0455
C23 C 0.6792(3) 0.4925(2) 0.0849(3)
H14 H 0.7334 0.5244 0.1021
C24 C 0.6329(3) 0.4650(2) 0.1473(3)
C25 C 0.4454(3) 0.3529(2) -0.1333(3)
H15 H 0.4192 0.3376 -0.1924
C26 C 0.5235(3) 0.3996(2) -0.1141(3)
H16 H 0.5507 0.4157 -0.1608
C27 C 0.3050(3) 0.2601(2) 0.1626(3)
C28 C 0.6656(3) 0.4812(2) 0.2448(3)
C29 C 0.1093(3) 0.4651(2) 0.0982(3)
C30 C 0.1006(3) 0.3895(2) 0.0910(3)
H17 H 0.1000 0.3663 0.0367
C31 C 0.0928(3) 0.3492(2) 0.1632(4)
H18 H 0.0867 0.2981 0.1590
C32 C 0.0939(3) 0.3844(2) 0.2429(4)
C33 C 0.1008(3) 0.4604(2) 0.2437(3)
C34 C 0.1016(3) 0.5004(2) 0.3224(3)
C35 C 0.0975(3) 0.4645(2) 0.4000(3)
C36 C 0.1023(3) 0.5079(3) 0.4757(3)
H19 H 0.1043 0.4859 0.5310
C37 C 0.1040(3) 0.5824(2) 0.4686(3)
H20 H 0.1039 0.6121 0.5181
C38 C 0.1059(3) 0.6132(2) 0.3873(3)
C39 C 0.0895(3) 0.3491(2) 0.3252(4)
H21 H 0.0851 0.2978 0.3266
C40 C 0.0914(3) 0.3864(2) 0.3982(4)
H22 H 0.0886 0.3612 0.4505
C41 C 0.1190(3) 0.5157(2) 0.0246(3)
C42 C 0.1090(3) 0.6942(2) 0.3704(3)
Tb2A Tb 0.854590(13) 0.133500(10) 0.316330(13)
O6A O 0.28433(19) 0.70368(14) 0.1777(2)
O15 O 0.8412(3) 0.37081(19) 0.1415(3)
H23 H 0.866(3) 0.4066(12) 0.121(3)
H24 H 0.871(2) 0.3331(11) 0.133(3)
O16 O 0.8431(3) 0.3663(2) 0.3170(3)
H25 H 0.850(4) 0.374(2) 0.2650(18)
H26 H 0.816(5) 0.403(2) 0.334(3)
O17 O 1.1296(3) 0.1250(2) 0.2292(5)
H27 H 1.156(5) 0.113(4) 0.188(3)
H28 H 1.176(4) 0.139(4) 0.273(3)
loop_
_geom_bond_atom_site_label_1
_geom_bond_atom_site_label_2
_geom_bond_site_symmetry_1
_geom_bond_site_symmetry_2
Tb1 O3 1_555 1_555
Tb2 O1 1_555 1_555
O1 H1 1_555 1_555
H2 O1 1_555 1_555
O2 Tb2 1_555 1_555
H3 O2 1_555 1_555
H4 O2 1_555 1_555
O3 C13 1_555 1_555
O4 Tb2 1_555 1_555
O5 Tb1 1_555 1_555
O6 C14 1_555 1_555
O7 Tb1 1_555 1_555
O8 C27 1_555 1_555
O9 Tb1 1_555 1_555
O10 C28 1_555 1_555
O11 Tb2 1_555 1_555
O12 C41 1_555 1_555
O13 Tb2 1_555 1_555
O14 C42 1_555 1_555
N1 Tb1 1_555 1_555
N2 Tb1 1_555 1_555
N3 Tb1 1_555 1_555
N4 Tb1 1_555 1_555
N5 Tb2 1_555 1_555
N6 Tb2 1_555 1_555
C1 N1 1_555 1_555
C2 C1 1_555 1_555
H5 C2 1_555 1_555
C3 C2 1_555 1_555
H6 C3 1_555 1_555
C4 C3 1_555 1_555
C5 N1 1_555 1_555
C6 N2 1_555 1_555
C7 C6 1_555 1_555
C8 C7 1_555 1_555
H7 C8 1_555 1_555
C9 C8 1_555 1_555
H8 C9 1_555 1_555
C10 N2 1_555 1_555
C11 C4 1_555 1_555
H9 C11 1_555 1_555
C12 C7 1_555 1_555
H10 C12 1_555 1_555
C13 O4 1_555 1_555
C14 O5 1_555 1_555
C15 N3 1_555 1_555
C16 C15 1_555 1_555
H11 C16 1_555 1_555
C17 C16 1_555 1_555
H12 C17 1_555 1_555
C18 C17 1_555 1_555
C19 N3 1_555 1_555
C20 N4 1_555 1_555
C21 C20 1_555 1_555
C22 C21 1_555 1_555
H13 C22 1_555 1_555
C23 C22 1_555 1_555
H14 C23 1_555 1_555
C24 N4 1_555 1_555
C25 C18 1_555 1_555
H15 C25 1_555 1_555
C26 C21 1_555 1_555
H16 C26 1_555 1_555
C27 O7 1_555 1_555
C28 O9 1_555 1_555
C29 N5 1_555 1_555
C30 C29 1_555 1_555
H17 C30 1_555 1_555
C31 C30 1_555 1_555
H18 C31 1_555 1_555
C32 C31 1_555 1_555
C33 N5 1_555 1_555
C34 N6 1_555 1_555
C35 C34 1_555 1_555
C36 C35 1_555 1_555
H19 C36 1_555 1_555
C37 C36 1_555 1_555
H20 C37 1_555 1_555
C38 N6 1_555 1_555
C39 C32 1_555 1_555
H21 C39 1_555 1_555
C40 C35 1_555 1_555
H22 C40 1_555 1_555
C41 O11 1_555 1_555
C42 O13 1_555 1_555
O15 H23 1_555 1_555
H24 O15 1_555 1_555
O16 H25 1_555 1_555
H26 O16 1_555 1_555
O17 H27 1_555 1_555
H28 O17 1_555 1_555
Tb2A O6 1_555 1_555
O6A Tb2 1_555 1_555
C1 C13 1_555 1_555
C4 C5 1_555 1_555
C5 C6 1_555 1_555
C9 C10 1_555 1_555
C10 C14 1_555 1_555
C11 C12 1_555 1_555
C15 C27 1_555 1_555
C18 C19 1_555 1_555
C19 C20 1_555 1_555
C23 C24 1_555 1_555
C24 C28 1_555 1_555
C25 C26 1_555 1_555
C29 C41 1_555 1_555
C32 C33 1_555 1_555
C33 C34 1_555 1_555
C37 C38 1_555 1_555
C38 C42 1_555 1_555
C39 C40 1_555 1_555

#END
