
#######################################################################
#
#                 Cambridge Crystallographic Data Centre
#                                CCDC 
#
#######################################################################
#
# If this CIF has been generated from an entry in the Cambridge 
# Structural Database, then it will include bibliographic, chemical, 
# crystal, experimental, refinement or atomic coordinate data resulting 
# from the CCDC's data processing and validation procedures.
#
#######################################################################

data_YOJQUK
_symmetry_cell_setting           rhombohedral
_symmetry_space_group_name_H-M   'R -3 c'
_symmetry_Int_Tables_number      167
_space_group_name_Hall           '-R 3 2"c'
loop_
_symmetry_equiv_pos_site_id
_symmetry_equiv_pos_as_xyz
1 x,y,z
2 -y,x-y,z
3 -x+y,-x,z
4 y,x,1/2-z
5 2/3+x,1/3+y,1/3+z
6 2/3-y,1/3+x-y,1/3+z
7 2/3-x+y,1/3-x,1/3+z
8 2/3+y,1/3+x,5/6-z
9 1/3+x,2/3+y,2/3+z
10 1/3+y,2/3+x,1/6-z
11 x-y,-y,1/2-z
12 -x,-x+y,1/2-z
13 1/3-y,2/3+x-y,2/3+z
14 1/3-x+y,2/3-x,2/3+z
15 1/3+x-y,2/3-y,1/6-z
16 1/3-x,2/3-x+y,1/6-z
17 2/3+x-y,1/3-y,5/6-z
18 2/3-x,1/3-x+y,5/6-z
19 -x,-y,-z
20 y,-x+y,-z
21 x-y,x,-z
22 -y,-x,1/2+z
23 1/3-x,2/3-y,2/3-z
24 1/3+y,2/3-x+y,2/3-z
25 1/3+x-y,2/3+x,2/3-z
26 1/3-y,2/3-x,1/6+z
27 2/3-x,1/3-y,1/3-z
28 2/3-y,1/3-x,5/6+z
29 -x+y,y,1/2+z
30 x,x-y,1/2+z
31 2/3+y,1/3-x+y,1/3-z
32 2/3+x-y,1/3+x,1/3-z
33 2/3-x+y,1/3+y,5/6+z
34 2/3+x,1/3+x-y,5/6+z
35 1/3-x+y,2/3+y,1/6+z
36 1/3+x,2/3+x-y,1/6+z
_cell_length_a                   18.902(5)
_cell_length_b                   18.902(5)
_cell_length_c                   22.178(8)
_cell_angle_alpha                90
_cell_angle_beta                 90
_cell_angle_gamma                120.00
_cell_volume                     6862.28
loop_
_atom_site_label
_atom_site_type_symbol
_atom_site_fract_x
_atom_site_fract_y
_atom_site_fract_z
Co1 Co 0.6667 0.94189(7) 0.0833
S1 S 0.56425(10) 0.81798(10) 0.04256(8)
Cl1 Cl 0.72892(12) 1.03796(11) 0.01187(9)
N1 N 0.4390(3) 0.8528(3) 0.0425(2)
N2 N 0.5087(3) 0.8878(3) -0.0400(2)
C1 C 0.5033(4) 0.8542(4) 0.0149(3)
C2 C 0.4047(4) 0.8848(4) 0.0047(3)
H1 H 0.3593 0.8901 0.0132
C3 C 0.4480(4) 0.9072(4) -0.0463(3)
H2 H 0.4388 0.9313 -0.0797
C4 C 0.5738(5) 0.9072(5) -0.0833
H3 H 0.5852 0.9563 -0.1051
H4 H 0.6230 0.9186 -0.0616
C5 C 0.4090(5) 0.8211(5) 0.1027(3)
H5 H 0.4002 0.7666 0.1060
H6 H 0.3584 0.8202 0.1096
H7 H 0.4485 0.8554 0.1321
Co1G Co 0.60856(7) 1.0000 -0.2500
S1G S 0.48465(10) 0.89758(10) -0.20923(8)
S1O S 0.76908(10) 0.92040(14) 0.12411(8)
Cl1O Cl 0.60441(12) 0.97571(16) 0.15480(9)
N1G N 0.5195(3) 0.7723(3) -0.2092(2)
N2G N 0.5545(3) 0.8420(3) -0.1267(2)
C1G C 0.5209(4) 0.8366(4) -0.1816(3)
C2G C 0.5515(4) 0.7380(4) -0.1714(3)
H1G H 0.5568 0.6926 -0.1799
C3G C 0.5739(4) 0.7813(4) -0.1204(3)
H2G H 0.5980 0.7721 -0.0870
C5G C 0.4878(5) 0.7423(5) -0.2694(3)
H5G H 0.4333 0.7335 -0.2727
H6G H 0.4869 0.6917 -0.2763
H7G H 0.5221 0.7818 -0.2988
loop_
_geom_bond_atom_site_label_1
_geom_bond_atom_site_label_2
_geom_bond_site_symmetry_1
_geom_bond_site_symmetry_2
Co1 S1 1_555 1_555
S1 C1 1_555 1_555
Cl1 Co1 1_555 1_555
N1 C1 1_555 1_555
N2 C1 1_555 1_555
C2 N1 1_555 1_555
H1 C2 1_555 1_555
C3 N2 1_555 1_555
H2 C3 1_555 1_555
C4 N2 1_555 1_555
H3 C4 1_555 1_555
H4 C4 1_555 1_555
C5 N1 1_555 1_555
H5 C5 1_555 1_555
H6 C5 1_555 1_555
H7 C5 1_555 1_555
Co1G S1G 1_555 1_555
S1G C1G 1_555 1_555
S1O Co1 1_555 1_555
Cl1O Co1 1_555 1_555
N1G C1G 1_555 1_555
N2G C4 1_555 1_555
C1G N2G 1_555 1_555
C2G N1G 1_555 1_555
H1G C2G 1_555 1_555
C3G N2G 1_555 1_555
H2G C3G 1_555 1_555
C5G N1G 1_555 1_555
H5G C5G 1_555 1_555
H6G C5G 1_555 1_555
H7G C5G 1_555 1_555
C2 C3 1_555 1_555
C2G C3G 1_555 1_555

#END
