
#######################################################################
#
#                 Cambridge Crystallographic Data Centre
#                                CCDC 
#
#######################################################################
#
# If this CIF has been generated from an entry in the Cambridge 
# Structural Database, then it will include bibliographic, chemical, 
# crystal, experimental, refinement or atomic coordinate data resulting 
# from the CCDC's data processing and validation procedures.
#
#######################################################################

data_YOJQET01
_symmetry_cell_setting           monoclinic
_symmetry_space_group_name_H-M   'P 21/c'
_symmetry_Int_Tables_number      14
_space_group_name_Hall           '-P 2ybc'
loop_
_symmetry_equiv_pos_site_id
_symmetry_equiv_pos_as_xyz
1 x,y,z
2 x,1/2-y,1/2+z
3 -x,-y,-z
4 -x,1/2+y,1/2-z
_cell_length_a                   24.9613(4)
_cell_length_b                   6.91570(10)
_cell_length_c                   14.6427(2)
_cell_angle_alpha                90
_cell_angle_beta                 93.1490(10)
_cell_angle_gamma                90
_cell_volume                     2523.88
loop_
_atom_site_label
_atom_site_type_symbol
_atom_site_fract_x
_atom_site_fract_y
_atom_site_fract_z
Ba1 Ba 0.28290(2) 0.15712(8) 0.40763(4)
N1 N 0.0197(3) 0.2742(13) 0.5389(5)
C1 C 0.0508(4) 0.2492(15) 0.4676(7)
N2 N 0.1031(3) 0.2668(14) 0.4842(6)
C2 C 0.1288(4) 0.3121(17) 0.5734(7)
C3 C 0.1876(4) 0.3548(15) 0.5618(7)
O1 O 0.2049(3) 0.3486(14) 0.4846(6)
O2 O 0.2148(3) 0.3955(13) 0.6343(6)
C4 C 0.0689(5) 0.193(2) 0.3045(8)
N3 N 0.0315(3) 0.2104(13) 0.3803(5)
C5 C -0.0234(4) 0.1826(17) 0.3593(7)
O3 O -0.0390(3) 0.1406(15) 0.2808(5)
C6 C -0.0580(4) 0.2084(15) 0.4343(7)
N4 N -0.1100(3) 0.1776(14) 0.4129(6)
O4 O -0.1430(3) 0.2029(14) 0.4762(6)
C7 C -0.0339(4) 0.2567(15) 0.5230(7)
N5 N -0.0638(4) 0.2839(16) 0.5935(7)
N6 N 0.4570(3) -0.1253(12) 0.1756(5)
C8 C 0.4304(4) -0.1476(14) 0.0969(6)
N7 N 0.3784(3) -0.1054(12) 0.0892(5)
C9 C 0.3502(4) -0.0397(15) 0.1675(6)
C10 C 0.3302(4) -0.2007(15) 0.2291(6)
O5 O 0.3181(3) -0.1531(11) 0.3080(5)
O6 O 0.3252(4) -0.3676(11) 0.1962(5)
C11 C 0.4202(4) -0.2492(16) -0.0678(6)
N8 N 0.4533(3) -0.2130(12) 0.0163(5)
C12 C 0.5076(4) -0.2567(14) 0.0174(6)
O7 O 0.5274(3) -0.3210(12) -0.0523(5)
C13 C 0.5388(4) -0.2191(15) 0.1021(6)
N9 N 0.5909(3) -0.2507(13) 0.0981(6)
O8 O 0.6215(3) -0.2189(12) 0.1707(5)
C14 C 0.5096(4) -0.1528(14) 0.1798(6)
N10 N 0.5374(4) -0.1197(15) 0.2577(6)
O9 O 0.2525(3) 0.3755(12) 0.2564(5)
O10 O 0.3531(3) 0.1068(13) 0.5582(5)
O11 O 0.3013(3) 0.5615(11) 0.4386(5)
O12 O 0.2469(3) -0.1107(15) 0.5340(6)
O13 O 0.1944(3) -0.0024(13) 0.3132(6)
H1 H 0.1239 0.2501 0.4382
H2 H 0.1253 0.2012 0.6154
H3 H 0.1113 0.4257 0.6001
H4 H 0.0913 0.0777 0.3142
H5 H 0.0918 0.3079 0.3036
H6 H 0.0480 0.1818 0.2460
H7 H -0.0486 0.3120 0.6475
H8 H -0.0989 0.2740 0.5865
H9 H 0.3608 -0.1176 0.0358
H10 H 0.3191 0.0390 0.1452
H11 H 0.3745 0.0457 0.2050
H12 H 0.3928 -0.3463 -0.0559
H13 H 0.4429 -0.2967 -0.1154
H14 H 0.4027 -0.1288 -0.0883
H15 H 0.5209 -0.0800 0.3059
H16 H 0.5724 -0.1374 0.2614
H17 H 0.2795 0.4410 0.2349
H18 H 0.2315 0.3045 0.2110
H19 H 0.3886 0.1322 0.5474
H20 H 0.3582 0.0155 0.6014
H21 H 0.3075 0.6608 0.3987
H22 H 0.2719 0.6050 0.4772
H23 H 0.2119 -0.1490 0.5410
H24 H 0.2678 -0.1216 0.5870
H25 H 0.1875 -0.1461 0.3192
H26 H 0.1976 0.0241 0.2532
O8C O 0.3785(3) 0.2811(12) 0.3293(5)
Ba1C Ba 0.71710(2) -0.34288(8) 0.09237(4)
O14 O 0.1579(4) -0.3867(15) 0.2901(6)
H27 H 0.1394 -0.3681 0.2295
H28 H 0.1898 -0.4768 0.2937
loop_
_geom_bond_atom_site_label_1
_geom_bond_atom_site_label_2
_geom_bond_site_symmetry_1
_geom_bond_site_symmetry_2
Ba1 O1 1_555 1_555
N1 C1 1_555 1_555
C1 N2 1_555 1_555
N2 C2 1_555 1_555
C2 C3 1_555 1_555
C3 O1 1_555 1_555
O2 C3 1_555 1_555
C4 N3 1_555 1_555
N3 C1 1_555 1_555
C5 N3 1_555 1_555
O3 C5 1_555 1_555
C6 C5 1_555 1_555
N4 C6 1_555 1_555
O4 N4 1_555 1_555
C7 N1 1_555 1_555
N5 C7 1_555 1_555
N6 C8 1_555 1_555
C8 N7 1_555 1_555
N7 C9 1_555 1_555
C9 C10 1_555 1_555
C10 O5 1_555 1_555
O5 Ba1 1_555 1_555
O6 C10 1_555 1_555
C11 N8 1_555 1_555
N8 C8 1_555 1_555
C12 N8 1_555 1_555
O7 C12 1_555 1_555
C13 C12 1_555 1_555
N9 C13 1_555 1_555
O8 N9 1_555 1_555
C14 N6 1_555 1_555
N10 C14 1_555 1_555
O9 Ba1 1_555 1_555
O10 Ba1 1_555 1_555
O11 Ba1 1_555 1_555
O12 Ba1 1_555 1_555
O13 Ba1 1_555 1_555
O14 H27 1_555 1_555
H1 N2 1_555 1_555
H2 C2 1_555 1_555
H3 C2 1_555 1_555
H4 C4 1_555 1_555
H5 C4 1_555 1_555
H6 C4 1_555 1_555
H7 N5 1_555 1_555
H8 N5 1_555 1_555
H9 N7 1_555 1_555
H10 C9 1_555 1_555
H11 C9 1_555 1_555
H12 C11 1_555 1_555
H13 C11 1_555 1_555
H14 C11 1_555 1_555
H15 N10 1_555 1_555
H16 N10 1_555 1_555
H17 O9 1_555 1_555
H18 O9 1_555 1_555
H19 O10 1_555 1_555
H20 O10 1_555 1_555
H21 O11 1_555 1_555
H22 O11 1_555 1_555
H23 O12 1_555 1_555
H24 O12 1_555 1_555
H25 O13 1_555 1_555
H26 O13 1_555 1_555
H28 O14 1_555 1_555
O8C Ba1 1_555 1_555
Ba1C O8 1_555 1_555
C6 C7 1_555 1_555
C13 C14 1_555 1_555

#END
