
#######################################################################
#
#                 Cambridge Crystallographic Data Centre
#                                CCDC 
#
#######################################################################
#
# If this CIF has been generated from an entry in the Cambridge 
# Structural Database, then it will include bibliographic, chemical, 
# crystal, experimental, refinement or atomic coordinate data resulting 
# from the CCDC's data processing and validation procedures.
#
#######################################################################

data_YOJREV
_symmetry_cell_setting           monoclinic
_symmetry_space_group_name_H-M   'P 21/c'
_symmetry_Int_Tables_number      14
_space_group_name_Hall           '-P 2ybc'
loop_
_symmetry_equiv_pos_site_id
_symmetry_equiv_pos_as_xyz
1 x,y,z
2 -x,1/2+y,1/2-z
3 -x,-y,-z
4 x,1/2-y,1/2+z
_cell_length_a                   7.758(5)
_cell_length_b                   16.478(10)
_cell_length_c                   15.067(10)
_cell_angle_alpha                90
_cell_angle_beta                 104.270(10)
_cell_angle_gamma                90
_cell_volume                     1866.68
loop_
_atom_site_label
_atom_site_type_symbol
_atom_site_fract_x
_atom_site_fract_y
_atom_site_fract_z
Co1 Co 0.39112(9) 0.37008(4) 0.22126(5)
Cl1 Cl 0.18907(19) 0.46998(9) 0.20207(10)
Cl2 Cl 0.3354(2) 0.28954(10) 0.09663(10)
S1 S 0.42310(18) 0.30267(9) 0.36079(9)
S2 S 0.31807(19) -0.08142(10) 0.24375(10)
N1 N 0.0857(6) 0.2963(3) 0.3839(3)
N2 N 0.1564(6) 0.1898(3) 0.3175(3)
N3 N 0.3180(6) 0.0211(3) 0.3861(3)
N4 N 0.2195(6) -0.0976(3) 0.4064(3)
C1 C 0.2159(7) 0.2634(3) 0.3528(3)
C2 C -0.0574(8) 0.2430(4) 0.3678(4)
H1 H -0.1651 0.2516 0.3831
C3 C -0.0135(8) 0.1779(4) 0.3269(5)
H2 H -0.0843 0.1325 0.3081
C4 C 0.2611(9) 0.1344(4) 0.2749(4)
H3 H 0.3214 0.1654 0.2368
H4 H 0.1818 0.0963 0.2359
C5 C 0.3963(8) 0.0885(4) 0.3457(4)
H5 H 0.4869 0.0673 0.3177
H6 H 0.4536 0.1256 0.3940
C6 C 0.2861(7) -0.0539(3) 0.3477(4)
C7 C 0.2057(8) -0.0511(4) 0.4794(4)
H7 H 0.1608 -0.0676 0.5283
C8 C 0.2675(8) 0.0213(4) 0.4678(4)
H8 H 0.2758 0.0650 0.5077
C9 C 0.0940(10) 0.3760(5) 0.4284(5)
H9 H 0.2072 0.4007 0.4308
H10 H 0.0796 0.3694 0.4895
H11 H 0.0007 0.4100 0.3940
C10 C 0.1648(10) -0.1829(5) 0.3915(6)
H12 H 0.1876 -0.2016 0.3352
H13 H 0.0401 -0.1876 0.3884
H14 H 0.2311 -0.2153 0.4413
Co1A Co 0.60888(9) -0.12992(4) 0.27874(5)
S2A S 0.68193(19) 0.41858(10) 0.25625(10)
C11 C 0.4477(17) 0.5845(10) 0.3964(9)
H15 H 0.4657 0.5285 0.3836
H16 H 0.5327 0.6004 0.4515
H17 H 0.4629 0.6175 0.3464
C12 C 0.2753(16) 0.5949(6) 0.4079(7)
N5 N 0.134(2) 0.6056(8) 0.4118(9)
loop_
_geom_bond_atom_site_label_1
_geom_bond_atom_site_label_2
_geom_bond_site_symmetry_1
_geom_bond_site_symmetry_2
Co1 Cl1 1_555 1_555
Cl2 Co1 1_555 1_555
S1 Co1 1_555 1_555
S2 C6 1_555 1_555
N1 C1 1_555 1_555
N2 C1 1_555 1_555
N3 C5 1_555 1_555
N4 C6 1_555 1_555
C1 S1 1_555 1_555
C2 N1 1_555 1_555
H1 C2 1_555 1_555
C3 N2 1_555 1_555
H2 C3 1_555 1_555
C4 N2 1_555 1_555
H3 C4 1_555 1_555
H4 C4 1_555 1_555
C5 C4 1_555 1_555
H5 C5 1_555 1_555
H6 C5 1_555 1_555
C6 N3 1_555 1_555
C7 N4 1_555 1_555
H7 C7 1_555 1_555
C8 N3 1_555 1_555
H8 C8 1_555 1_555
C9 N1 1_555 1_555
H9 C9 1_555 1_555
H10 C9 1_555 1_555
H11 C9 1_555 1_555
C10 N4 1_555 1_555
H12 C10 1_555 1_555
H13 C10 1_555 1_555
H14 C10 1_555 1_555
C11 H15 1_555 1_555
H16 C11 1_555 1_555
H17 C11 1_555 1_555
C12 C11 1_555 1_555
N5 C12 1_555 1_555
Co1A S2 1_555 1_555
S2A Co1 1_555 1_555
C2 C3 1_555 1_555
C7 C8 1_555 1_555

#END
