
#######################################################################
#
#                 Cambridge Crystallographic Data Centre
#                                CCDC 
#
#######################################################################
#
# If this CIF has been generated from an entry in the Cambridge 
# Structural Database, then it will include bibliographic, chemical, 
# crystal, experimental, refinement or atomic coordinate data resulting 
# from the CCDC's data processing and validation procedures.
#
#######################################################################

data_YOKJAL
_symmetry_cell_setting           monoclinic
_symmetry_space_group_name_H-M   'P 21'
_symmetry_Int_Tables_number      4
_space_group_name_Hall           'P 2yb'
loop_
_symmetry_equiv_pos_site_id
_symmetry_equiv_pos_as_xyz
1 x,y,z
2 -x,1/2+y,-z
_cell_length_a                   11.112(3)
_cell_length_b                   7.5687(17)
_cell_length_c                   15.993(4)
_cell_angle_alpha                90
_cell_angle_beta                 108.248(3)
_cell_angle_gamma                90
_cell_volume                     1277.42
loop_
_atom_site_label
_atom_site_type_symbol
_atom_site_fract_x
_atom_site_fract_y
_atom_site_fract_z
C1 C 0.7686(5) 0.8958(12) 0.9653(3)
H1 H 0.7564 0.8315 1.0130
C2 C 0.8886(6) 0.9552(9) 0.9712(4)
H2 H 0.9580 0.9325 1.0226
C3 C 0.9066(6) 1.0476(9) 0.9018(5)
H3 H 0.9882 1.0918 0.9056
C4 C 0.8052(6) 1.0755(9) 0.8269(4)
H4 H 0.8161 1.1349 0.7774
C5 C 0.6869(5) 1.0143(8) 0.8257(4)
C6 C 0.5681(5) 1.0398(8) 0.7510(4)
C7 C 0.5578(6) 1.1131(9) 0.6701(4)
H5 H 0.6306 1.1519 0.6563
C8 C 0.4384(6) 1.1282(9) 0.6100(4)
H6 H 0.4286 1.1821 0.5546
C9 C 0.3339(6) 1.0671(10) 0.6285(4)
H7 H 0.2522 1.0755 0.5862
C10 C 0.3496(6) 0.9931(8) 0.7098(4)
C11 C 0.2513(5) 0.9182(8) 0.7436(4)
C12 C 0.1221(6) 0.9102(12) 0.6949(4)
H8 H 0.0918 0.9555 0.6366
C13 C 0.0409(6) 0.8347(9) 0.7343(5)
H9 H -0.0469 0.8273 0.7028
C14 C 0.0861(6) 0.7689(9) 0.8199(5)
H10 H 0.0305 0.7152 0.8470
C15 C 0.2131(6) 0.7841(9) 0.8635(4)
H11 H 0.2444 0.7432 0.9225
C16 C 0.5095(5) 0.7208(9) 0.9836(4)
Cu1 Cu 0.48539(5) 0.88578(11) 0.88553(3)
N1 N 0.6701(4) 0.9266(5) 0.8945(3)
N2 N 0.4665(4) 0.9836(7) 0.7690(3)
N3 N 0.2949(4) 0.8538(7) 0.8268(3)
N4 N 0.5230(5) 0.6259(8) 1.0420(3)
Cu1A Cu 0.51461(5) 0.38578(11) 1.11447(3)
N4A N 0.4770(5) 1.1259(8) 0.9580(3)
C17 C 0.6878(6) 0.6898(10) 0.6545(5)
C18 C 0.6532(7) 0.6048(10) 0.7209(5)
C19 C 0.7515(6) 0.5615(10) 0.7991(5)
C20 C 0.5247(6) 0.5621(10) 0.7117(5)
C21 C 0.4272(7) 0.5983(11) 0.6322(5)
H12 H 0.4483 0.6517 0.5849
C22 C 0.3039(7) 0.5584(11) 0.6219(5)
H13 H 0.2405 0.5860 0.5680
C23 C 0.2684(7) 0.4758(11) 0.6909(5)
C24 C 0.3676(7) 0.4403(10) 0.7705(5)
H14 H 0.3484 0.3852 0.8182
C25 C 0.4883(7) 0.4842(10) 0.7788(5)
H15 H 0.5518 0.4607 0.8333
C26 C 0.1250(8) 0.3176(9) 0.7734(4)
C27 C 0.1466(7) 0.4210(11) 0.6947(5)
C28 C 0.0357(7) 0.4449(10) 0.6375(5)
C29 C -0.0790(6) 0.3611(12) 0.6425(5)
C30 C 0.0260(8) 0.5504(12) 0.5578(6)
N5 N 0.8322(6) 0.5275(9) 0.8615(5)
N6 N 0.7175(6) 0.7626(12) 0.6006(5)
N7 N 0.1313(6) 0.2471(9) 0.8370(4)
N8 N -0.1752(6) 0.3006(10) 0.6338(4)
N9 N -0.0102(7) 0.6295(13) 0.4959(5)
loop_
_geom_bond_atom_site_label_1
_geom_bond_atom_site_label_2
_geom_bond_site_symmetry_1
_geom_bond_site_symmetry_2
C1 H1 1_555 1_555
C2 C1 1_555 1_555
H2 C2 1_555 1_555
C3 C2 1_555 1_555
H3 C3 1_555 1_555
C4 C3 1_555 1_555
H4 C4 1_555 1_555
C5 C4 1_555 1_555
C6 C5 1_555 1_555
C7 C6 1_555 1_555
H5 C7 1_555 1_555
C8 C7 1_555 1_555
H6 C8 1_555 1_555
C9 C8 1_555 1_555
H7 C9 1_555 1_555
C10 C9 1_555 1_555
C11 C10 1_555 1_555
C12 C11 1_555 1_555
H8 C12 1_555 1_555
C13 C12 1_555 1_555
H9 C13 1_555 1_555
C14 C13 1_555 1_555
H10 C14 1_555 1_555
C15 C14 1_555 1_555
H11 C15 1_555 1_555
C16 Cu1 1_555 1_555
Cu1 N1 1_555 1_555
N1 C1 1_555 1_555
N2 C6 1_555 1_555
N3 C11 1_555 1_555
N4 C16 1_555 1_555
C17 C18 1_555 1_555
C18 C19 1_555 1_555
C19 N5 1_555 1_555
C20 C18 1_555 1_555
C21 C20 1_555 1_555
H12 C21 1_555 1_555
C22 C21 1_555 1_555
H13 C22 1_555 1_555
C23 C22 1_555 1_555
C24 C23 1_555 1_555
H14 C24 1_555 1_555
C25 C20 1_555 1_555
H15 C25 1_555 1_555
C26 C27 1_555 1_555
C27 C23 1_555 1_555
C28 C27 1_555 1_555
C29 C28 1_555 1_555
C30 C28 1_555 1_555
N6 C17 1_555 1_555
N7 C26 1_555 1_555
N8 C29 1_555 1_555
N9 C30 1_555 1_555
Cu1A N4 1_555 1_555
N4A Cu1 1_555 1_555
C5 N1 1_555 1_555
C10 N2 1_555 1_555
C15 N3 1_555 1_555
Cu1 N2 1_555 1_555
Cu1 N3 1_555 1_555
C24 C25 1_555 1_555

#END
