
#######################################################################
#
#                 Cambridge Crystallographic Data Centre
#                                CCDC 
#
#######################################################################
#
# If this CIF has been generated from an entry in the Cambridge 
# Structural Database, then it will include bibliographic, chemical, 
# crystal, experimental, refinement or atomic coordinate data resulting 
# from the CCDC's data processing and validation procedures.
#
#######################################################################

data_YOLDIN
_symmetry_cell_setting           triclinic
_symmetry_space_group_name_H-M   'P -1'
_symmetry_Int_Tables_number      2
_space_group_name_Hall           '-P 1'
loop_
_symmetry_equiv_pos_site_id
_symmetry_equiv_pos_as_xyz
1 x,y,z
2 -x,-y,-z
_cell_length_a                   10.0688(11)
_cell_length_b                   11.7024(12)
_cell_length_c                   12.9457(16)
_cell_angle_alpha                104.929(2)
_cell_angle_beta                 96.122(2)
_cell_angle_gamma                112.896(2)
_cell_volume                     1320.59
loop_
_atom_site_label
_atom_site_type_symbol
_atom_site_fract_x
_atom_site_fract_y
_atom_site_fract_z
Cd1 Cd 0.65514(3) 0.83859(3) -0.07777(3)
N1 N 0.7803(4) 0.7317(3) -0.0124(3)
N2 N 0.5434(4) 0.7539(4) 0.0530(3)
O1 O 0.4056(3) 0.8211(3) -0.1492(3)
O2 O 0.4741(4) 0.6691(3) -0.2245(3)
O3 O 0.2859(3) 0.4424(3) -0.3507(3)
H1 H 0.3667 0.5016 -0.3147
O4 O -0.1774(4) 0.1702(3) -0.3213(3)
H2 H -0.2272 0.1409 -0.2800
O5 O -0.2591(4) 0.0465(4) -0.1846(3)
O6 O -0.1601(4) -0.0843(3) -0.1575(3)
O7 O 0.7371(4) 1.0524(3) 0.0358(3)
H3 H 0.689(5) 1.089(5) 0.070(4)
C1 C 0.0355(5) 0.3966(4) -0.3910(3)
C2 C 0.1796(5) 0.4858(4) -0.3402(3)
C3 C 0.2194(5) 0.6188(4) -0.2773(3)
C4 C 0.1092(5) 0.6605(4) -0.2747(4)
H4 H 0.1333 0.7469 -0.2342
C5 C -0.0376(5) 0.5773(4) -0.3309(4)
C6 C -0.1475(5) 0.6259(5) -0.3322(4)
H5 H -0.1222 0.7130 -0.2930
C7 C -0.2893(5) 0.5452(5) -0.3904(4)
H6 H -0.3603 0.5775 -0.3921
C8 C -0.3278(5) 0.4143(5) -0.4473(4)
H7 H -0.4250 0.3603 -0.4868
C9 C -0.2279(5) 0.3632(5) -0.4469(4)
H8 H -0.2586 0.2747 -0.4845
C10 C -0.0765(5) 0.4427(4) -0.3896(3)
C11 C 0.0058(6) 0.2565(4) -0.4540(4)
H9 H -0.0968 0.2102 -0.4949
H10 H 0.0672 0.2596 -0.5071
C12 C 0.3744(5) 0.7092(4) -0.2141(4)
C13 C 0.0339(5) 0.1768(4) -0.3854(3)
C14 C -0.0645(5) 0.1339(4) -0.3226(3)
C15 C -0.0522(5) 0.0522(4) -0.2603(4)
C16 C 0.0644(5) 0.0198(4) -0.2616(4)
H11 H 0.0759 -0.0302 -0.2189
C17 C 0.1667(5) 0.0590(4) -0.3246(4)
C18 C 0.2841(5) 0.0203(5) -0.3267(5)
H12 H 0.2970 -0.0266 -0.2814
C19 C 0.3771(6) 0.0506(5) -0.3936(5)
H13 H 0.4541 0.0254 -0.3939
C20 C 0.3570(6) 0.1205(5) -0.4626(5)
H14 H 0.4184 0.1376 -0.5110
C21 C 0.2495(6) 0.1638(5) -0.4603(4)
H15 H 0.2410 0.2123 -0.5052
C22 C 0.1495(5) 0.1359(4) -0.3901(4)
C23 C -0.1646(5) 0.0018(4) -0.1974(4)
C24 C 0.9041(5) 0.7309(5) -0.0396(4)
H16 H 0.9410 0.7725 -0.0896
C25 C 0.9789(6) 0.6714(5) 0.0030(4)
H17 H 1.0640 0.6713 -0.0187
C26 C 0.9272(6) 0.6126(5) 0.0774(4)
H18 H 0.9772 0.5726 0.1080
C27 C 0.8001(5) 0.6125(5) 0.1070(4)
H19 H 0.7637 0.5729 0.1581
C28 C 0.7269(5) 0.6718(4) 0.0604(4)
C29 C 0.5900(5) 0.6771(4) 0.0896(3)
C30 C 0.5151(6) 0.6056(6) 0.1525(4)
H20 H 0.5482 0.5505 0.1759
C31 C 0.3914(6) 0.6167(5) 0.1798(4)
H21 H 0.3400 0.5693 0.2218
C32 C 0.3452(6) 0.6975(6) 0.1449(4)
H22 H 0.2620 0.7068 0.1626
C33 C 0.4243(7) 0.7656(7) 0.0826(5)
H23 H 0.3938 0.8224 0.0598
H24 H 0.731(9) 1.072(8) -0.023(4)
Cd1_2 Cd -0.34486(3) -0.16141(3) -0.07777(3)
O6_2 O 0.8399(4) 0.9157(3) -0.1575(3)
loop_
_geom_bond_atom_site_label_1
_geom_bond_atom_site_label_2
_geom_bond_site_symmetry_1
_geom_bond_site_symmetry_2
Cd1 N1 1_555 1_555
N1 C24 1_555 1_555
N2 Cd1 1_555 1_555
O1 Cd1 1_555 1_555
O2 Cd1 1_555 1_555
O3 H1 1_555 1_555
O4 H2 1_555 1_555
O5 C23 1_555 1_555
O6 C23 1_555 1_555
O7 Cd1 1_555 1_555
H3 O7 1_555 1_555
C1 C2 1_555 1_555
C2 O3 1_555 1_555
C3 C2 1_555 1_555
C4 C3 1_555 1_555
H4 C4 1_555 1_555
C5 C4 1_555 1_555
C6 C5 1_555 1_555
H5 C6 1_555 1_555
C7 C6 1_555 1_555
H6 C7 1_555 1_555
C8 C7 1_555 1_555
H7 C8 1_555 1_555
C9 C8 1_555 1_555
H8 C9 1_555 1_555
C10 C1 1_555 1_555
C11 C1 1_555 1_555
H9 C11 1_555 1_555
H10 C11 1_555 1_555
C12 O1 1_555 1_555
C13 C11 1_555 1_555
C14 O4 1_555 1_555
C15 C14 1_555 1_555
C16 C15 1_555 1_555
H11 C16 1_555 1_555
C17 C16 1_555 1_555
C18 C17 1_555 1_555
H12 C18 1_555 1_555
C19 C18 1_555 1_555
H13 C19 1_555 1_555
C20 C19 1_555 1_555
H14 C20 1_555 1_555
C21 C20 1_555 1_555
H15 C21 1_555 1_555
C22 C13 1_555 1_555
C23 C15 1_555 1_555
C24 H16 1_555 1_555
C25 C24 1_555 1_555
H17 C25 1_555 1_555
C26 C25 1_555 1_555
H18 C26 1_555 1_555
C27 C26 1_555 1_555
H19 C27 1_555 1_555
C28 N1 1_555 1_555
C29 N2 1_555 1_555
C30 C29 1_555 1_555
H20 C30 1_555 1_555
C31 C30 1_555 1_555
H21 C31 1_555 1_555
C32 C31 1_555 1_555
H22 C32 1_555 1_555
C33 N2 1_555 1_555
H23 C33 1_555 1_555
H24 O7 1_555 1_555
Cd1_2 O6 1_555 1_555
O6_2 Cd1 1_555 1_555
O2 C12 1_555 1_555
C3 C12 1_555 1_555
C5 C10 1_555 1_555
C9 C10 1_555 1_555
C13 C14 1_555 1_555
C17 C22 1_555 1_555
C21 C22 1_555 1_555
C27 C28 1_555 1_555
C28 C29 1_555 1_555
C32 C33 1_555 1_555

#END
