
#######################################################################
#
#                 Cambridge Crystallographic Data Centre
#                                CCDC 
#
#######################################################################
#
# If this CIF has been generated from an entry in the Cambridge 
# Structural Database, then it will include bibliographic, chemical, 
# crystal, experimental, refinement or atomic coordinate data resulting 
# from the CCDC's data processing and validation procedures.
#
#######################################################################

data_YOLKOB
_symmetry_cell_setting           orthorhombic
_symmetry_space_group_name_H-M   'P 21 21 21'
_symmetry_Int_Tables_number      19
_space_group_name_Hall           'P 2ac 2ab'
loop_
_symmetry_equiv_pos_site_id
_symmetry_equiv_pos_as_xyz
1 x,y,z
2 1/2-x,-y,1/2+z
3 -x,1/2+y,1/2-z
4 1/2+x,1/2-y,-z
_cell_length_a                   7.1674(4)
_cell_length_b                   24.5523(13)
_cell_length_c                   29.5142(18)
_cell_angle_alpha                90
_cell_angle_beta                 90
_cell_angle_gamma                90
_cell_volume                     5193.8
loop_
_atom_site_label
_atom_site_type_symbol
_atom_site_fract_x
_atom_site_fract_y
_atom_site_fract_z
C1 C 1.1672(9) 0.9656(3) 0.6987(2)
C2 C 1.2803(9) 0.9140(3) 0.7015(2)
C3 C 1.4391(10) 0.9100(3) 0.6755(2)
H1 H 1.4713 0.9374 0.6552
C4 C 1.5510(11) 0.8636(3) 0.6802(2)
H2 H 1.6549 0.8598 0.6615
C5 C 1.5116(9) 0.8217(2) 0.7126(2)
C6 C 1.3476(8) 0.8270(2) 0.7376(2)
H3 H 1.3138 0.8000 0.7582
C7 C 1.2348(8) 0.8723(2) 0.7319(2)
H4 H 1.1255 0.8750 0.7488
C8 C 1.6374(8) 0.7747(3) 0.7191(2)
C9 C 1.8266(10) 0.7783(3) 0.7106(3)
H5 H 1.8756 0.8107 0.6994
C10 C 1.9443(10) 0.7348(3) 0.7184(3)
H6 H 2.0717 0.7389 0.7135
C11 C 1.8764(9) 0.6851(3) 0.7333(2)
C12 C 1.6882(9) 0.6813(3) 0.7426(3)
H7 H 1.6392 0.6486 0.7532
C13 C 1.5711(10) 0.7257(3) 0.7363(3)
H8 H 1.4455 0.7226 0.7438
C14 C 2.0044(12) 0.6368(3) 0.7399(3)
C15 C 0.5601(10) 1.0431(3) 0.7839(2)
H9 H 0.5707 1.0800 0.7770
C16 C 0.4013(10) 1.0265(3) 0.8067(2)
H10 H 0.3090 1.0513 0.8146
C17 C 0.3833(8) 0.9713(3) 0.81747(18)
C18 C 0.5300(9) 0.9374(3) 0.8048(2)
H11 H 0.5278 0.9007 0.8127
C19 C 0.6786(9) 0.9581(3) 0.78053(19)
H12 H 0.7700 0.9342 0.7703
C20 C 0.2221(9) 0.9493(3) 0.84202(18)
C21 C 0.1720(9) 0.8969(3) 0.84921(18)
H13 H 0.2376 0.8673 0.8377
C22 C 0.0118(8) 0.8919(3) 0.87566(18)
C23 C -0.0605(9) 0.9389(3) 0.8887(2)
C24 C -0.2364(10) 0.9508(3) 0.9162(3)
H14 H -0.3318 0.9251 0.9083
H15 H -0.2792 0.9870 0.9095
H16 H -0.2089 0.9480 0.9479
C25 C -0.0592(9) 0.8382(2) 0.89049(19)
C26 C -0.1213(11) 0.7969(3) 0.8557(2)
C27 C -0.2206(12) 0.7517(4) 0.8827(2)
C28 C -0.1626(9) 0.7637(3) 0.9317(2)
C29 C -0.0785(8) 0.8190(2) 0.93231(19)
C30 C -0.0226(8) 0.8449(2) 0.9756(2)
C31 C -0.1386(8) 0.8552(2) 1.0149(2)
H17 H -0.2636 0.8450 1.0157
C32 C -0.0561(8) 0.8803(2) 1.0503(2)
C33 C 0.1566(8) 0.8625(3) 0.98289(19)
C34 C 0.3280(9) 0.8576(4) 0.9524(2)
H18 H 0.3062 0.8303 0.9298
H19 H 0.4343 0.8476 0.9703
H20 H 0.3512 0.8920 0.9379
C35 C -0.1338(8) 0.8966(2) 1.09281(19)
C36 C -0.3210(9) 0.8899(3) 1.1031(2)
H21 H -0.4000 0.8730 1.0824
C37 C -0.3902(9) 0.9082(3) 1.1437(2)
H22 H -0.5143 0.9009 1.1507
C38 C -0.1095(10) 0.9419(3) 1.1630(2)
H23 H -0.0348 0.9598 1.1841
C39 C -0.0280(9) 0.9245(3) 1.1243(2)
H24 H 0.0977 0.9313 1.1189
F1 F 0.0264(8) 0.7745(2) 0.83482(17)
F2 F -0.2250(9) 0.8174(2) 0.82466(16)
F3 F -0.1935(11) 0.70392(19) 0.86971(15)
F4 F -0.4073(8) 0.7628(3) 0.87939(17)
F5 F -0.0388(7) 0.72614(15) 0.94690(15)
F6 F -0.3125(6) 0.75837(15) 0.96005(13)
N1 N 0.6962(6) 1.0112(2) 0.77120(16)
N2 N -0.2903(7) 0.93525(19) 1.17317(15)
O1 O 1.0336(5) 0.96778(15) 0.72671(15)
O2 O 1.2095(6) 1.0014(2) 0.67080(17)
O3 O 1.9227(6) 0.59389(17) 0.74899(16)
O4 O 2.1756(7) 0.6437(2) 0.7380(2)
S1 S 0.0617(3) 0.99323(7) 0.86713(6)
S2 S 0.1750(2) 0.89170(8) 1.03657(5)
Zn1 Zn 0.90928(9) 1.03741(3) 0.73117(2)
N2A N 0.7903(7) 1.06475(19) 0.67317(15)
O3B O 1.0773(6) 1.09389(17) 0.75101(16)
Zn1A Zn -0.40928(9) 0.96259(3) 1.23117(2)
Zn1B Zn 2.09072(9) 0.53741(3) 0.76883(2)
loop_
_geom_bond_atom_site_label_1
_geom_bond_atom_site_label_2
_geom_bond_site_symmetry_1
_geom_bond_site_symmetry_2
C1 C2 1_555 1_555
C2 C3 1_555 1_555
C3 H1 1_555 1_555
C4 C3 1_555 1_555
H2 C4 1_555 1_555
C5 C4 1_555 1_555
C6 C5 1_555 1_555
H3 C6 1_555 1_555
C7 C2 1_555 1_555
H4 C7 1_555 1_555
C8 C5 1_555 1_555
C9 C8 1_555 1_555
H5 C9 1_555 1_555
C10 C9 1_555 1_555
H6 C10 1_555 1_555
C11 C10 1_555 1_555
C12 C11 1_555 1_555
H7 C12 1_555 1_555
C13 C8 1_555 1_555
H8 C13 1_555 1_555
C14 C11 1_555 1_555
C15 H9 1_555 1_555
C16 C15 1_555 1_555
H10 C16 1_555 1_555
C17 C16 1_555 1_555
C18 C17 1_555 1_555
H11 C18 1_555 1_555
C19 C18 1_555 1_555
H12 C19 1_555 1_555
C20 C17 1_555 1_555
C21 C20 1_555 1_555
H13 C21 1_555 1_555
C22 C21 1_555 1_555
C23 C22 1_555 1_555
C24 C23 1_555 1_555
H14 C24 1_555 1_555
H15 C24 1_555 1_555
H16 C24 1_555 1_555
C25 C22 1_555 1_555
C26 C25 1_555 1_555
C27 C26 1_555 1_555
C28 C27 1_555 1_555
C29 C25 1_555 1_555
C30 C29 1_555 1_555
C31 C30 1_555 1_555
H17 C31 1_555 1_555
C32 C31 1_555 1_555
C33 C30 1_555 1_555
C34 C33 1_555 1_555
H18 C34 1_555 1_555
H19 C34 1_555 1_555
H20 C34 1_555 1_555
C35 C32 1_555 1_555
C36 C35 1_555 1_555
H21 C36 1_555 1_555
C37 C36 1_555 1_555
H22 C37 1_555 1_555
C38 H23 1_555 1_555
C39 C35 1_555 1_555
H24 C39 1_555 1_555
F1 C26 1_555 1_555
F2 C26 1_555 1_555
F3 C27 1_555 1_555
F4 C27 1_555 1_555
F5 C28 1_555 1_555
F6 C28 1_555 1_555
N1 C15 1_555 1_555
N2 C37 1_555 1_555
O1 C1 1_555 1_555
O2 C1 1_555 1_555
O3 C14 1_555 1_555
O4 C14 1_555 1_555
S1 C20 1_555 1_555
S2 C32 1_555 1_555
Zn1 N1 1_555 1_555
N2A Zn1 1_555 1_555
O3B Zn1 1_555 1_555
Zn1A N2 1_555 1_555
Zn1B O3 1_555 1_555
C6 C7 1_555 1_555
C12 C13 1_555 1_555
C19 N1 1_555 1_555
C23 S1 1_555 1_555
C28 C29 1_555 1_555
C33 S2 1_555 1_555
C38 C39 1_555 1_555
C38 N2 1_555 1_555
O1 Zn1 1_555 1_555

#END
