
#######################################################################
#
#                 Cambridge Crystallographic Data Centre
#                                CCDC 
#
#######################################################################
#
# If this CIF has been generated from an entry in the Cambridge 
# Structural Database, then it will include bibliographic, chemical, 
# crystal, experimental, refinement or atomic coordinate data resulting 
# from the CCDC's data processing and validation procedures.
#
#######################################################################

data_YOLTUQ
_symmetry_cell_setting           triclinic
_symmetry_space_group_name_H-M   'P -1'
_symmetry_Int_Tables_number      2
_space_group_name_Hall           '-P 1'
loop_
_symmetry_equiv_pos_site_id
_symmetry_equiv_pos_as_xyz
1 x,y,z
2 -x,-y,-z
_cell_length_a                   10.3111(16)
_cell_length_b                   10.7447(17)
_cell_length_c                   11.805(2)
_cell_angle_alpha                71.192(4)
_cell_angle_beta                 65.659(4)
_cell_angle_gamma                83.226(4)
_cell_volume                     1127.82
loop_
_atom_site_label
_atom_site_type_symbol
_atom_site_fract_x
_atom_site_fract_y
_atom_site_fract_z
Ni1 Ni 0.0000 0.5000 0.5000
Ni2 Ni 1.0000 0.0000 0.5000
O1 O 0.3430(4) 0.3161(3) 0.2550(3)
H1 H 0.4180 0.3212 0.1911
O2 O 1.1298(4) 0.1490(3) 0.4661(3)
H2 H 1.0916 0.2200 0.4804
H3 H 1.2043 0.1799 0.3983
O3 O 0.3767(4) 0.5589(3) 0.2096(3)
O4 O 0.1972(3) 0.4191(3) 0.4258(3)
O5 O 0.8219(3) 0.0956(3) 0.5852(3)
O6 O 0.7133(4) 0.2309(3) 0.7310(3)
H4 H 0.6904 0.3053 0.7357
O7 O 0.9125(3) 0.3301(3) 0.5094(3)
N1 N 0.0055(4) 0.5924(4) 0.3111(4)
N2 N 0.0096(5) 0.9161(4) -0.3153(4)
P1 P 0.33976(14) 0.42937(14) 0.31602(13)
P2 P 0.78745(15) 0.23527(14) 0.58385(13)
C1 C 0.4726(6) 0.3845(5) 0.3832(5)
C2 C 0.6000(5) 0.4519(5) 0.3400(5)
C3 C 0.6868(5) 0.4037(5) 0.4077(5)
H5 H 0.7705 0.4502 0.3801
C4 C 0.6578(5) 0.2916(5) 0.5132(5)
C5 C 0.5305(6) 0.2216(5) 0.5568(6)
C6 C 0.4423(6) 0.2706(5) 0.4919(6)
H6 H 0.3571 0.2256 0.5217
C7 C 0.6517(6) 0.5706(6) 0.2229(6)
H7 H 0.5838 0.6395 0.2345
H8 H 0.6628 0.5487 0.1468
H9 H 0.7417 0.5997 0.2123
C8 C 0.4875(7) 0.0948(6) 0.6717(6)
H10 H 0.4885 0.1102 0.7470
H11 H 0.5536 0.0270 0.6496
H12 H 0.3936 0.0676 0.6903
C9 C -0.0427(6) 0.7149(5) 0.2809(5)
H13 H -0.0809 0.7565 0.3454
C10 C -0.0383(6) 0.7811(6) 0.1595(5)
H14 H -0.0734 0.8659 0.1429
C11 C 0.0183(6) 0.7227(5) 0.0605(5)
C12 C 0.0187(6) 0.7919(5) -0.0715(5)
C13 C -0.1071(6) 0.8322(6) -0.0840(6)
H15 H -0.1921 0.8193 -0.0104
C14 C -0.1068(7) 0.8917(6) -0.2057(6)
H16 H -0.1937 0.9165 -0.2118
C15 C 0.1319(6) 0.8784(6) -0.3019(5)
H17 H 0.2161 0.8964 -0.3764
C16 C 0.1395(6) 0.8145(6) -0.1837(5)
H18 H 0.2269 0.7866 -0.1800
C17 C 0.0691(6) 0.5980(6) 0.0918(5)
H19 H 0.1099 0.5551 0.0285
C18 C 0.0600(6) 0.5364(5) 0.2165(5)
H20 H 0.0936 0.4512 0.2356
O1A O -0.3430(4) 0.6839(3) 0.7450(3)
H1A H -0.4180 0.6788 0.8089
O3A O -0.3767(4) 0.4411(3) 0.7904(3)
O4A O -0.1972(3) 0.5809(3) 0.5742(3)
O5A O -0.8219(3) 0.9044(3) 0.4148(3)
O6A O -0.7133(4) 0.7691(3) 0.2690(3)
H4A H -0.6904 0.6947 0.2643
O7A O -0.9125(3) 0.6699(3) 0.4906(3)
N1A N -0.0055(4) 0.4076(4) 0.6889(4)
N2A N -0.0096(5) 0.0839(4) 1.3153(4)
P1A P -0.33976(14) 0.57063(14) 0.68398(13)
P2A P -0.78745(15) 0.76473(14) 0.41615(13)
C1A C -0.4726(6) 0.6155(5) 0.6168(5)
C2A C -0.6000(5) 0.5481(5) 0.6600(5)
C3A C -0.6868(5) 0.5963(5) 0.5923(5)
H5A H -0.7705 0.5498 0.6199
C4A C -0.6578(5) 0.7084(5) 0.4868(5)
C5A C -0.5305(6) 0.7784(5) 0.4432(6)
C6A C -0.4423(6) 0.7294(5) 0.5081(6)
H6A H -0.3571 0.7744 0.4783
C7A C -0.6517(6) 0.4294(6) 0.7771(6)
H7A H -0.5838 0.3605 0.7655
H8A H -0.6628 0.4513 0.8532
H9A H -0.7417 0.4003 0.7877
C8A C -0.4875(7) 0.9052(6) 0.3283(6)
H10A H -0.4885 0.8898 0.2530
H11A H -0.5536 0.9730 0.3504
H12A H -0.3936 0.9324 0.3097
C9A C 0.0427(6) 0.2851(5) 0.7191(5)
H13A H 0.0809 0.2435 0.6546
C10A C 0.0383(6) 0.2189(6) 0.8405(5)
H14A H 0.0734 0.1341 0.8571
C11A C -0.0183(6) 0.2773(5) 0.9395(5)
C12A C -0.0187(6) 0.2081(5) 1.0715(5)
C13A C 0.1071(6) 0.1678(6) 1.0840(6)
H15A H 0.1921 0.1807 1.0104
C14A C 0.1068(7) 0.1083(6) 1.2057(6)
H16A H 0.1937 0.0835 1.2118
C15A C -0.1319(6) 0.1216(6) 1.3019(5)
H17A H -0.2161 0.1036 1.3764
C16A C -0.1395(6) 0.1855(6) 1.1837(5)
H18A H -0.2269 0.2134 1.1800
C17A C -0.0691(6) 0.4020(6) 0.9082(5)
H19A H -0.1099 0.4449 0.9715
C18A C -0.0600(6) 0.4636(5) 0.7835(5)
H20A H -0.0936 0.5488 0.7644
O2A O 0.8702(4) -0.1490(3) 0.5339(3)
H2A H 0.9084 -0.2200 0.5196
H3A H 0.7957 -0.1799 0.6017
Ni1_2 Ni -1.0000 0.5000 0.5000
Ni1_3 Ni 1.0000 0.5000 0.5000
Ni2_2 Ni -1.0000 1.0000 0.5000
Ni2_3 Ni 0.0000 0.0000 1.5000
Ni2_4 Ni 0.0000 1.0000 -0.5000
O5A_2 O 1.1781(3) -0.0956(3) 0.4148(3)
O7_2 O -0.0875(3) 0.3301(3) 0.5094(3)
O7A_2 O 0.0875(3) 0.6699(3) 0.4906(3)
N2_2 N 1.0096(5) -0.0839(4) 0.6847(4)
N2A_2 N 0.9904(5) 0.0839(4) 0.3153(4)
O8 O 0.5607(6) 0.3022(5) 0.0498(5)
H21 H 0.5581 0.3668 -0.0138
H22 H 0.6454 0.2777 0.0147
O9 O -0.3771(9) 0.0656(6) 0.9811(6)
H23 H -0.3580 0.0969 1.0301
H24 H -0.3414 0.1190 0.9046
loop_
_geom_bond_atom_site_label_1
_geom_bond_atom_site_label_2
_geom_bond_site_symmetry_1
_geom_bond_site_symmetry_2
Ni1 O4 1_555 1_555
Ni2 O2 1_555 1_555
O1 H1 1_555 1_555
O2 H2 1_555 1_555
H3 O2 1_555 1_555
O3 P1 1_555 1_555
O4 P1 1_555 1_555
O5 Ni2 1_555 1_555
O6 H4 1_555 1_555
O7 P2 1_555 1_555
N1 Ni1 1_555 1_555
N2 C14 1_555 1_555
P1 O1 1_555 1_555
P2 O5 1_555 1_555
C1 P1 1_555 1_555
C2 C1 1_555 1_555
C3 C2 1_555 1_555
H5 C3 1_555 1_555
C4 P2 1_555 1_555
C5 C4 1_555 1_555
C6 C1 1_555 1_555
H6 C6 1_555 1_555
C7 C2 1_555 1_555
H7 C7 1_555 1_555
H8 C7 1_555 1_555
H9 C7 1_555 1_555
C8 C5 1_555 1_555
H10 C8 1_555 1_555
H11 C8 1_555 1_555
H12 C8 1_555 1_555
C9 N1 1_555 1_555
H13 C9 1_555 1_555
C10 C9 1_555 1_555
H14 C10 1_555 1_555
C11 C10 1_555 1_555
C12 C11 1_555 1_555
C13 C12 1_555 1_555
H15 C13 1_555 1_555
C14 C13 1_555 1_555
H16 C14 1_555 1_555
C15 N2 1_555 1_555
H17 C15 1_555 1_555
C16 C12 1_555 1_555
H18 C16 1_555 1_555
C17 C11 1_555 1_555
H19 C17 1_555 1_555
C18 N1 1_555 1_555
H20 C18 1_555 1_555
O8 H21 1_555 1_555
H22 O8 1_555 1_555
O9 H23 1_555 1_555
H24 O9 1_555 1_555
O1A H1A 1_555 1_555
O3A P1A 1_555 1_555
O4A Ni1 1_555 1_555
O5A P2A 1_555 1_555
O6A H4A 1_555 1_555
O7A P2A 1_555 1_555
N1A Ni1 1_555 1_555
N2A C14A 1_555 1_555
P1A O1A 1_555 1_555
P2A O6A 1_555 1_555
C1A P1A 1_555 1_555
C2A C1A 1_555 1_555
C3A C2A 1_555 1_555
H5A C3A 1_555 1_555
C4A P2A 1_555 1_555
C5A C4A 1_555 1_555
C6A C1A 1_555 1_555
H6A C6A 1_555 1_555
C7A C2A 1_555 1_555
H7A C7A 1_555 1_555
H8A C7A 1_555 1_555
H9A C7A 1_555 1_555
C8A C5A 1_555 1_555
H10A C8A 1_555 1_555
H11A C8A 1_555 1_555
H12A C8A 1_555 1_555
C9A N1A 1_555 1_555
H13A C9A 1_555 1_555
C10A C9A 1_555 1_555
H14A C10A 1_555 1_555
C11A C10A 1_555 1_555
C12A C11A 1_555 1_555
C13A C12A 1_555 1_555
H15A C13A 1_555 1_555
C14A C13A 1_555 1_555
H16A C14A 1_555 1_555
C15A N2A 1_555 1_555
H17A C15A 1_555 1_555
C16A C12A 1_555 1_555
H18A C16A 1_555 1_555
C17A C11A 1_555 1_555
H19A C17A 1_555 1_555
C18A N1A 1_555 1_555
H20A C18A 1_555 1_555
O2A Ni2 1_555 1_555
H2A O2A 1_555 1_555
H3A O2A 1_555 1_555
Ni1_2 O7A 1_555 1_555
Ni1_3 O7 1_555 1_555
Ni2_2 O5A 1_555 1_555
Ni2_3 N2A 1_555 1_555
Ni2_4 N2 1_555 1_555
O5A_2 Ni2 1_555 1_555
O7_2 Ni1 1_555 1_555
O7A_2 Ni1 1_555 1_555
N2_2 Ni2 1_555 1_555
N2A_2 Ni2 1_555 1_555
O6 P2 1_555 1_555
C3 C4 1_555 1_555
C5 C6 1_555 1_555
C15 C16 1_555 1_555
C17 C18 1_555 1_555
O4A P1A 1_555 1_555
C3A C4A 1_555 1_555
C5A C6A 1_555 1_555
C15A C16A 1_555 1_555
C17A C18A 1_555 1_555

#END
