
#######################################################################
#
#                 Cambridge Crystallographic Data Centre
#                                CCDC 
#
#######################################################################
#
# If this CIF has been generated from an entry in the Cambridge 
# Structural Database, then it will include bibliographic, chemical, 
# crystal, experimental, refinement or atomic coordinate data resulting 
# from the CCDC's data processing and validation procedures.
#
#######################################################################

data_YOLXAA
_symmetry_cell_setting           monoclinic
_symmetry_space_group_name_H-M   'P 21/c'
_symmetry_Int_Tables_number      14
_space_group_name_Hall           '-P 2ybc'
loop_
_symmetry_equiv_pos_site_id
_symmetry_equiv_pos_as_xyz
1 x,y,z
2 -x,1/2+y,1/2-z
3 -x,-y,-z
4 x,1/2-y,1/2+z
_cell_length_a                   7.3371(2)
_cell_length_b                   7.5180(2)
_cell_length_c                   20.5697(5)
_cell_angle_alpha                90
_cell_angle_beta                 100.0740(10)
_cell_angle_gamma                90
_cell_volume                     1117.14
loop_
_atom_site_label
_atom_site_type_symbol
_atom_site_fract_x
_atom_site_fract_y
_atom_site_fract_z
Sr1 Sr 0.383382(18) 0.898419(18) 0.620812(7)
O1 O 0.3371(2) 0.72058(17) 0.50732(6)
O2 O 0.2547(3) 1.08974(19) 0.52332(7)
O3 O 0.72000(15) 0.92700(16) 0.61095(6)
O4 O 0.07137(16) 0.88115(16) 0.64718(7)
O5 O 0.41409(17) 1.21727(15) 0.65086(6)
O6 O 0.39907(17) 0.54846(15) 0.64637(6)
O7 O 0.54306(16) 0.90118(16) 0.74215(6)
H1 H 0.259(4) 1.076(3) 0.4851(9)
H2 H 0.247(4) 1.194(2) 0.5274(13)
P1 P 0.90012(5) 0.98123(6) 0.65317(2)
P2 P 0.48273(5) 1.38150(5) 0.687470(18)
O8 O 0.87543(17) 0.98883(19) 0.72747(6)
C1 C 0.9431(2) 1.2103(2) 0.63021(8)
C2 C 0.7305(2) 1.3881(2) 0.68853(8)
H3 H 0.770(2) 0.965(3) 0.7321(11)
N1 N 0.77478(17) 1.32789(18) 0.62287(6)
H4 H 0.9891 1.2093 0.5888
H5 H 1.0390 1.2607 0.6636
H6 H 0.336(3) 1.514(3) 0.6121(8)
H7 H 0.7755 1.5084 0.6977
H8 H 0.7928 1.3113 0.7234
C3 C 0.7897(2) 1.4809(2) 0.57763(7)
H9 H 0.6772 1.2609 0.6032
H10 H 0.7069 1.5752 0.5862
C4 C 0.7408(2) 1.4242(2) 0.50588(8)
H11 H 0.9151 1.5271 0.5862
O9 O 0.77757(19) 1.53686(17) 0.46430(6)
O4_2 O 1.07137(16) 0.88115(16) 0.64718(7)
O6_2 O 0.39907(17) 1.54846(15) 0.64637(6)
O7A O 0.45694(16) 1.40118(16) 0.75785(6)
Sr1_2 Sr 1.383382(18) 0.898419(18) 0.620812(7)
Sr1_3 Sr 0.383382(18) 1.898419(18) 0.620812(7)
Sr1A Sr 0.616618(18) 1.398419(18) 0.879188(7)
O1B O 0.6629(2) 1.27942(17) 0.49268(6)
Sr1B Sr 0.616618(18) 1.101581(18) 0.379188(7)
loop_
_geom_bond_atom_site_label_1
_geom_bond_atom_site_label_2
_geom_bond_site_symmetry_1
_geom_bond_site_symmetry_2
Sr1 O1 1_555 1_555
O2 Sr1 1_555 1_555
O3 Sr1 1_555 1_555
O4 Sr1 1_555 1_555
O5 Sr1 1_555 1_555
O6 Sr1 1_555 1_555
O7 Sr1 1_555 1_555
H1 O2 1_555 1_555
H2 O2 1_555 1_555
P1 O3 1_555 1_555
P2 O5 1_555 1_555
O8 P1 1_555 1_555
C1 P1 1_555 1_555
C2 P2 1_555 1_555
H3 O8 1_555 1_555
N1 C1 1_555 1_555
H4 C1 1_555 1_555
H5 C1 1_555 1_555
H6 O6_2 1_555 1_555
H7 C2 1_555 1_555
H8 C2 1_555 1_555
C3 N1 1_555 1_555
H9 N1 1_555 1_555
H10 C3 1_555 1_555
C4 C3 1_555 1_555
H11 C3 1_555 1_555
O9 C4 1_555 1_555
O4_2 P1 1_555 1_555
O6_2 P2 1_555 1_555
O7A P2 1_555 1_555
Sr1_2 O4_2 1_555 1_555
Sr1_3 O6_2 1_555 1_555
Sr1A O7A 1_555 1_555
O1B C4 1_555 1_555
Sr1B O1B 1_555 1_555
C2 N1 1_555 1_555

#END
