
#######################################################################
#
#                 Cambridge Crystallographic Data Centre
#                                CCDC 
#
#######################################################################
#
# If this CIF has been generated from an entry in the Cambridge 
# Structural Database, then it will include bibliographic, chemical, 
# crystal, experimental, refinement or atomic coordinate data resulting 
# from the CCDC's data processing and validation procedures.
#
#######################################################################

data_YOMHIT
_symmetry_cell_setting           triclinic
_symmetry_space_group_name_H-M   'P -1'
_symmetry_Int_Tables_number      2
_space_group_name_Hall           '-P 1'
loop_
_symmetry_equiv_pos_site_id
_symmetry_equiv_pos_as_xyz
1 x,y,z
2 -x,-y,-z
_cell_length_a                   10.333(5)
_cell_length_b                   10.996(5)
_cell_length_c                   11.135(5)
_cell_angle_alpha                74.724(5)
_cell_angle_beta                 78.235(5)
_cell_angle_gamma                65.927(5)
_cell_volume                     1107.63
loop_
_atom_site_label
_atom_site_type_symbol
_atom_site_fract_x
_atom_site_fract_y
_atom_site_fract_z
Mn1 Mn 0.84370(19) 0.42245(18) 0.83504(18)
Mn2 Mn 0.4594(2) 0.37698(19) 0.95381(19)
N1 N 1.0033(11) 0.4861(11) 0.6756(10)
N2 N 1.0664(11) 0.2543(11) 0.8440(10)
O1 O -0.1638(10) 0.5974(9) 0.8893(9)
O2 O -0.3749(10) 0.7623(10) 0.9283(10)
O3 O -0.4054(10) 1.2389(10) 0.8471(11)
O4 O -0.2095(10) 1.2818(9) 0.7727(9)
O5 O 0.2135(9) 0.6857(8) 0.9712(8)
O6 O 0.2913(10) 0.5235(9) 0.8599(9)
O7 O 0.5386(9) 0.5505(9) 0.8835(8)
O8 O 0.6806(9) 0.5767(9) 0.7097(9)
C1 C -0.2448(14) 0.7205(13) 0.8884(12)
C2 C -0.1810(12) 0.8259(12) 0.8336(11)
C3 C -0.2636(14) 0.9630(13) 0.8309(12)
H1 H -0.3606 0.9905 0.8582
C4 C -0.1998(13) 1.0591(11) 0.7867(11)
C5 C -0.0567(13) 1.0169(13) 0.7405(12)
H2 H -0.0162 1.0821 0.7081
C6 C 0.0286(13) 0.8814(13) 0.7406(12)
C7 C -0.0341(13) 0.7844(13) 0.7908(12)
H3 H 0.0214 0.6924 0.7957
C8 C 0.1828(13) 0.8439(12) 0.6903(12)
C9 C 0.2165(15) 0.9218(14) 0.5764(12)
H4 H 0.1434 0.9916 0.5339
C10 C 0.3553(17) 0.8973(16) 0.5262(14)
H5 H 0.3758 0.9486 0.4494
C11 C 0.4658(15) 0.7949(15) 0.5910(13)
H6 H 0.5599 0.7812 0.5586
C12 C 0.4372(13) 0.7140(12) 0.7023(12)
C13 C 0.2921(13) 0.7379(12) 0.7524(12)
C14 C 0.5598(12) 0.6070(11) 0.7682(10)
C15 C 0.2611(12) 0.6435(13) 0.8725(12)
C16 C -0.2793(13) 1.2064(12) 0.8009(12)
C17 C 1.1417(14) 0.4137(14) 0.6826(13)
C18 C 1.2467(17) 0.4603(19) 0.6116(15)
H7 H 1.3426 0.4081 0.6199
C19 C 1.207(2) 0.5835(19) 0.5297(16)
H8 H 1.2755 0.6158 0.4807
C20 C 1.064(2) 0.6579(17) 0.5223(15)
H9 H 1.0335 0.7417 0.4676
C21 C 0.9673(17) 0.6078(15) 0.5955(13)
H10 H 0.8709 0.6603 0.5902
C22 C 1.1766(14) 0.2774(14) 0.7652(13)
C23 C 1.3096(15) 0.1707(16) 0.7581(15)
H11 H 1.3860 0.1878 0.7068
C24 C 1.3297(17) 0.0421(17) 0.8246(17)
H12 H 1.4182 -0.0283 0.8186
C25 C 1.2166(17) 0.0192(16) 0.9004(15)
H13 H 1.2250 -0.0677 0.9444
C26 C 1.0882(14) 0.1300(14) 0.9100(14)
H14 H 1.0134 0.1154 0.9662
Mn1_2 Mn -0.15630(19) 0.42245(18) 0.83504(18)
Mn1_3 Mn -0.15630(19) 1.42245(18) 0.83504(18)
Mn1A Mn 0.15630(19) 0.57755(18) 1.16496(18)
Mn2_2 Mn -0.5406(2) 1.37698(19) 0.95381(19)
Mn2A Mn -0.4594(2) 0.62302(19) 1.04619(19)
Mn2A_2 Mn 0.5406(2) 0.62302(19) 1.04619(19)
O1_2 O 0.8362(10) 0.5974(9) 0.8893(9)
O2A O 0.3749(10) 0.2377(10) 1.0717(10)
O3_2 O 0.5946(10) 0.2389(10) 0.8471(11)
O4_2 O 0.7905(10) 0.2818(9) 0.7727(9)
O5A O 0.7865(9) 0.3143(8) 1.0288(8)
O7A O 0.4614(9) 0.4495(9) 1.1165(8)
loop_
_geom_bond_atom_site_label_1
_geom_bond_atom_site_label_2
_geom_bond_site_symmetry_1
_geom_bond_site_symmetry_2
Mn1 N1 1_555 1_555
Mn2 O6 1_555 1_555
N1 C17 1_555 1_555
N2 Mn1 1_555 1_555
O1 C1 1_555 1_555
O2 C1 1_555 1_555
O3 C16 1_555 1_555
O4 C16 1_555 1_555
O5 C15 1_555 1_555
O6 C15 1_555 1_555
O7 Mn2 1_555 1_555
O8 Mn1 1_555 1_555
C1 C2 1_555 1_555
C2 C3 1_555 1_555
C3 H1 1_555 1_555
C4 C3 1_555 1_555
C5 C4 1_555 1_555
H2 C5 1_555 1_555
C6 C5 1_555 1_555
C7 C2 1_555 1_555
H3 C7 1_555 1_555
C8 C6 1_555 1_555
C9 C8 1_555 1_555
H4 C9 1_555 1_555
C10 C9 1_555 1_555
H5 C10 1_555 1_555
C11 C10 1_555 1_555
H6 C11 1_555 1_555
C12 C11 1_555 1_555
C13 C8 1_555 1_555
C14 O7 1_555 1_555
C15 C13 1_555 1_555
C16 C4 1_555 1_555
C17 C18 1_555 1_555
C18 H7 1_555 1_555
C19 C18 1_555 1_555
H8 C19 1_555 1_555
C20 C19 1_555 1_555
H9 C20 1_555 1_555
C21 N1 1_555 1_555
H10 C21 1_555 1_555
C22 N2 1_555 1_555
C23 C22 1_555 1_555
H11 C23 1_555 1_555
C24 C23 1_555 1_555
H12 C24 1_555 1_555
C25 C24 1_555 1_555
H13 C25 1_555 1_555
C26 N2 1_555 1_555
H14 C26 1_555 1_555
Mn1_2 O1 1_555 1_555
Mn1_3 O4 1_555 1_555
Mn1A O5 1_555 1_555
Mn2_2 O3 1_555 1_555
Mn2A O2 1_555 1_555
Mn2A_2 O7 1_555 1_555
O1_2 Mn1 1_555 1_555
O2A Mn2 1_555 1_555
O3_2 Mn2 1_555 1_555
O4_2 Mn1 1_555 1_555
O5A Mn1 1_555 1_555
O7A Mn2 1_555 1_555
O8 C14 1_555 1_555
C6 C7 1_555 1_555
C12 C13 1_555 1_555
C12 C14 1_555 1_555
C17 C22 1_555 1_555
C20 C21 1_555 1_555
C25 C26 1_555 1_555
Mn2A_2 O7A 1_555 1_555

#END
