
#######################################################################
#
#                 Cambridge Crystallographic Data Centre
#                                CCDC 
#
#######################################################################
#
# If this CIF has been generated from an entry in the Cambridge 
# Structural Database, then it will include bibliographic, chemical, 
# crystal, experimental, refinement or atomic coordinate data resulting 
# from the CCDC's data processing and validation procedures.
#
#######################################################################

data_YOMJAM
_symmetry_cell_setting           monoclinic
_symmetry_space_group_name_H-M   'C c'
_symmetry_Int_Tables_number      9
_space_group_name_Hall           'C -2yc'
loop_
_symmetry_equiv_pos_site_id
_symmetry_equiv_pos_as_xyz
1 x,y,z
2 x,-y,1/2+z
3 1/2+x,1/2+y,z
4 1/2+x,1/2-y,1/2+z
_cell_length_a                   12.4916(16)
_cell_length_b                   19.023(2)
_cell_length_c                   23.501(3)
_cell_angle_alpha                90
_cell_angle_beta                 101.161(2)
_cell_angle_gamma                90
_cell_volume                     5478.87
loop_
_atom_site_label
_atom_site_type_symbol
_atom_site_fract_x
_atom_site_fract_y
_atom_site_fract_z
Cd1 Cd 0.45798(4) 0.959978(10) 0.42564(3)
Cd2 Cd 0.45849(6) 0.338289(13) 0.42520(4)
S1 S 1.06278(7) 1.13732(7) 0.63145(5)
S2 S -0.14814(8) 1.13601(6) 0.22062(5)
O1 O 0.2539(2) 0.94956(15) 0.38775(12)
O2 O 0.3311(2) 1.05504(16) 0.40059(11)
O3 O -0.2308(2) 1.10195(19) 0.23873(15)
O4 O -0.1509(2) 1.21268(17) 0.23983(15)
O5 O -0.1337(3) 1.13375(18) 0.16200(12)
O6 O 0.5904(2) 1.05350(18) 0.44925(12)
O7 O 0.6610(2) 0.94843(16) 0.46412(11)
O8 O 1.1449(3) 1.0840(2) 0.62823(18)
O9 O 1.0792(3) 1.20474(19) 0.61160(17)
O10 O 1.0416(3) 1.1382(2) 0.69032(15)
O11 O 0.3152(2) 0.34262(19) 0.47462(14)
H1 H 0.2898 0.3815 0.4643
H2 H 0.2999 0.3308 0.5067
O12 O 0.5015(4) 0.21871(18) 0.41083(19)
H3 H 0.5606 0.2287 0.4017
H4 H 0.5251 0.1778 0.4209
O13 O 0.6034(2) 0.34675(16) 0.37386(14)
H5 H 0.6584 0.3714 0.3685
H6 H 0.6072 0.3021 0.3670
N1 N 0.4592(5) 0.46252(12) 0.4219(2)
N2 N 0.4608(4) 0.83681(11) 0.4237(2)
N3 N 0.3332(3) 0.33561(18) 0.33914(15)
N4 N -0.0489(3) 0.32844(19) 0.07265(16)
N5 N 0.5792(3) 0.33667(19) 0.51471(14)
N6 N 0.9613(3) 0.3301(2) 0.78079(17)
N7 N 0.4663(2) 0.96329(15) 0.32748(11)
N8 N 0.4487(2) 1.03321(17) 0.02755(12)
C1 C 0.3876(3) 0.4977(2) 0.38960(17)
H13 H 0.3314 0.4729 0.3663
C2 C 0.3845(3) 0.5672(2) 0.38552(16)
H14 H 0.3308 0.5883 0.3579
C3 C 0.4601(5) 0.60929(14) 0.4217(2)
C4 C 0.5363(3) 0.57572(19) 0.46357(16)
H15 H 0.5872 0.6009 0.4899
C5 C 0.5330(3) 0.5010(2) 0.46440(17)
H16 H 0.5800 0.4767 0.4933
C6 C 0.4562(6) 0.68878(15) 0.4282(3)
C7 C 0.3775(4) 0.7307(3) 0.3909(2)
H17 H 0.3256 0.7091 0.3625
C8 C 0.3778(3) 0.8021(2) 0.39634(19)
H18 H 0.3154 0.8269 0.3796
C9 C 0.5375(3) 0.7964(2) 0.45877(17)
H19 H 0.5893 0.8196 0.4861
C10 C 0.5434(3) 0.72496(19) 0.45655(19)
H20 H 0.6064 0.7015 0.4743
C11 C 0.2542(3) 1.0176(2) 0.37964(15)
C12 C 0.1547(3) 1.0461(2) 0.33876(15)
C13 C 0.0912(3) 1.0051(2) 0.29979(17)
H21 H 0.1072 0.9574 0.2996
C14 C 0.0049(3) 1.0294(2) 0.26057(19)
H22 H -0.0344 1.0000 0.2324
C15 C -0.0242(3) 1.1045(2) 0.26431(14)
C16 C 0.0452(4) 1.1423(2) 0.30261(17)
H23 H 0.0331 1.1904 0.3050
C17 C 0.1330(3) 1.1135(2) 0.33831(15)
H24 H 0.1796 1.1428 0.3634
C18 C 0.6664(3) 1.0112(3) 0.47344(16)
C19 C 0.7601(3) 1.0449(2) 0.51558(15)
C20 C 0.7820(3) 1.1190(2) 0.51299(18)
H25 H 0.7366 1.1483 0.4872
C21 C 0.8741(3) 1.1456(2) 0.55078(16)
H26 H 0.8906 1.1932 0.5498
C22 C 0.9419(3) 1.1012(2) 0.59013(18)
C23 C 0.9215(3) 1.0349(2) 0.59248(16)
H27 H 0.9690 1.0070 0.6184
C24 C 0.8276(3) 1.0023(2) 0.55629(16)
H28 H 0.8126 0.9548 0.5599
C25 C 0.3796(2) 0.94527(19) 0.28293(14)
H29 H 0.3176 0.9250 0.2924
C26 C 0.3827(3) 0.9565(2) 0.22548(14)
H30 H 0.3259 0.9391 0.1975
C27 C 0.4626(2) 0.99101(16) 0.20819(11)
C28 C 0.5477(3) 1.01181(19) 0.24937(14)
H31 H 0.6051 1.0368 0.2391
C29 C 0.5490(3) 0.9950(2) 0.30940(14)
H32 H 0.6105 1.0069 0.3368
C30 C 0.3691(3) 0.9992(2) 0.04620(15)
H33 H 0.3112 0.9827 0.0185
C31 C 0.3664(3) 0.9872(2) 0.10218(16)
H34 H 0.3055 0.9663 0.1124
C32 C 0.4578(3) 1.0068(2) 0.14613(16)
C33 C 0.5440(3) 1.0436(2) 0.12526(15)
H35 H 0.6069 1.0581 0.1504
C34 C 0.5285(3) 1.0562(2) 0.06605(16)
H36 H 0.5805 1.0837 0.0531
C35 C 0.3679(3) 0.3444(2) 0.28333(17)
H37 H 0.4414 0.3509 0.2824
C36 C 0.2953(3) 0.3431(2) 0.23446(17)
H38 H 0.3207 0.3458 0.1999
C37 C 0.1880(3) 0.33833(18) 0.23135(15)
C38 C 0.1528(3) 0.3269(3) 0.28574(18)
H39 H 0.0794 0.3191 0.2861
C39 C 0.2269(4) 0.3275(2) 0.3364(2)
H40 H 0.2018 0.3219 0.3709
C40 C 0.0550(4) 0.3550(2) 0.0770(2)
H41 H 0.0745 0.3730 0.0436
C41 C 0.1281(3) 0.3564(2) 0.1252(2)
H42 H 0.1986 0.3708 0.1236
C42 C 0.1050(3) 0.33743(17) 0.17804(18)
C43 C -0.0008(3) 0.3087(2) 0.17498(19)
H43 H -0.0204 0.2901 0.2081
C44 C -0.0739(3) 0.3083(2) 0.1236(2)
H44 H -0.1448 0.2933 0.1237
C45 C 0.5540(4) 0.3444(3) 0.5608(2)
H45 H 0.4797 0.3497 0.5600
C46 C 0.6212(4) 0.3465(3) 0.6158(2)
H46 H 0.5931 0.3551 0.6490
C47 C 0.7352(3) 0.3349(2) 0.6185(2)
C48 C 0.7644(3) 0.3293(2) 0.56664(19)
H47 H 0.8380 0.3257 0.5649
C49 C 0.6879(4) 0.3287(3) 0.5159(2)
H48 H 0.7114 0.3226 0.4810
C50 C 0.8646(4) 0.3522(2) 0.7795(2)
H49 H 0.8444 0.3640 0.8144
C51 C 0.7852(4) 0.3597(2) 0.72666(18)
H50 H 0.7187 0.3820 0.7259
C52 C 0.8133(3) 0.3318(2) 0.67621(17)
C53 C 0.9162(4) 0.3092(2) 0.6793(2)
H51 H 0.9402 0.2949 0.6460
C54 C 0.9855(4) 0.3073(3) 0.7325(2)
H52 H 1.0547 0.2885 0.7342
Cd1A Cd 0.45798(4) 1.040022(10) -0.07436(3)
N8A N 0.4487(2) 0.96679(17) 0.52755(12)
O14 O 0.2171(2) 0.30379(16) 0.57541(12)
H7 H 0.2780 0.3068 0.6014
H8 H 0.1670 0.2874 0.5911
O15 O 0.6942(2) 0.30633(17) 0.28131(12)
H9 H 0.7442 0.2872 0.2679
H10 H 0.6467 0.3258 0.2541
O16 O 0.6105(2) 0.16642(14) 0.38101(12)
H11 H 0.6250 0.1461 0.3521
H12 H 0.6079 0.1396 0.4084
loop_
_geom_bond_atom_site_label_1
_geom_bond_atom_site_label_2
_geom_bond_site_symmetry_1
_geom_bond_site_symmetry_2
Cd1 O1 1_555 1_555
Cd2 O11 1_555 1_555
S1 O8 1_555 1_555
S2 O3 1_555 1_555
O1 C11 1_555 1_555
O2 Cd1 1_555 1_555
O4 S2 1_555 1_555
O5 S2 1_555 1_555
O6 Cd1 1_555 1_555
O7 Cd1 1_555 1_555
O9 S1 1_555 1_555
O10 S1 1_555 1_555
O11 H1 1_555 1_555
H2 O11 1_555 1_555
O12 Cd2 1_555 1_555
H3 O12 1_555 1_555
H4 O12 1_555 1_555
O13 Cd2 1_555 1_555
H5 O13 1_555 1_555
H6 O13 1_555 1_555
O14 H7 1_555 1_555
H8 O14 1_555 1_555
O15 H9 1_555 1_555
H10 O15 1_555 1_555
O16 H11 1_555 1_555
H12 O16 1_555 1_555
N1 Cd2 1_555 1_555
N2 Cd1 1_555 1_555
N3 Cd2 1_555 1_555
N4 C40 1_555 1_555
N5 Cd2 1_555 1_555
N6 C50 1_555 1_555
N7 Cd1 1_555 1_555
N8 C30 1_555 1_555
C1 N1 1_555 1_555
H13 C1 1_555 1_555
C2 C1 1_555 1_555
H14 C2 1_555 1_555
C3 C2 1_555 1_555
C4 C3 1_555 1_555
H15 C4 1_555 1_555
C5 N1 1_555 1_555
H16 C5 1_555 1_555
C6 C3 1_555 1_555
C7 C6 1_555 1_555
H17 C7 1_555 1_555
C8 N2 1_555 1_555
H18 C8 1_555 1_555
C9 N2 1_555 1_555
H19 C9 1_555 1_555
C10 C6 1_555 1_555
H20 C10 1_555 1_555
C11 O2 1_555 1_555
C12 C11 1_555 1_555
C13 C12 1_555 1_555
H21 C13 1_555 1_555
C14 C13 1_555 1_555
H22 C14 1_555 1_555
C15 S2 1_555 1_555
C16 C15 1_555 1_555
H23 C16 1_555 1_555
C17 C12 1_555 1_555
H24 C17 1_555 1_555
C18 O6 1_555 1_555
C19 C18 1_555 1_555
C20 C19 1_555 1_555
H25 C20 1_555 1_555
C21 C20 1_555 1_555
H26 C21 1_555 1_555
C22 S1 1_555 1_555
C23 C22 1_555 1_555
H27 C23 1_555 1_555
C24 C19 1_555 1_555
H28 C24 1_555 1_555
C25 N7 1_555 1_555
H29 C25 1_555 1_555
C26 C25 1_555 1_555
H30 C26 1_555 1_555
C27 C26 1_555 1_555
C28 C27 1_555 1_555
H31 C28 1_555 1_555
C29 N7 1_555 1_555
H32 C29 1_555 1_555
C30 H33 1_555 1_555
C31 C30 1_555 1_555
H34 C31 1_555 1_555
C32 C27 1_555 1_555
C33 C32 1_555 1_555
H35 C33 1_555 1_555
C34 N8 1_555 1_555
H36 C34 1_555 1_555
C35 N3 1_555 1_555
H37 C35 1_555 1_555
C36 C35 1_555 1_555
H38 C36 1_555 1_555
C37 C36 1_555 1_555
C38 C37 1_555 1_555
H39 C38 1_555 1_555
C39 N3 1_555 1_555
H40 C39 1_555 1_555
C40 H41 1_555 1_555
C41 C40 1_555 1_555
H42 C41 1_555 1_555
C42 C37 1_555 1_555
C43 C42 1_555 1_555
H43 C43 1_555 1_555
C44 N4 1_555 1_555
H44 C44 1_555 1_555
C45 N5 1_555 1_555
H45 C45 1_555 1_555
C46 C45 1_555 1_555
H46 C46 1_555 1_555
C47 C46 1_555 1_555
C48 C47 1_555 1_555
H47 C48 1_555 1_555
C49 N5 1_555 1_555
H48 C49 1_555 1_555
C50 H49 1_555 1_555
C51 C50 1_555 1_555
H50 C51 1_555 1_555
C52 C47 1_555 1_555
C53 C52 1_555 1_555
H51 C53 1_555 1_555
C54 N6 1_555 1_555
H52 C54 1_555 1_555
Cd1A N8 1_555 1_555
N8A Cd1 1_555 1_555
O7 C18 1_555 1_555
C4 C5 1_555 1_555
C7 C8 1_555 1_555
C9 C10 1_555 1_555
C14 C15 1_555 1_555
C16 C17 1_555 1_555
C21 C22 1_555 1_555
C23 C24 1_555 1_555
C28 C29 1_555 1_555
C31 C32 1_555 1_555
C33 C34 1_555 1_555
C38 C39 1_555 1_555
C41 C42 1_555 1_555
C43 C44 1_555 1_555
C48 C49 1_555 1_555
C51 C52 1_555 1_555
C53 C54 1_555 1_555

#END
