
#######################################################################
#
#                 Cambridge Crystallographic Data Centre
#                                CCDC 
#
#######################################################################
#
# If this CIF has been generated from an entry in the Cambridge 
# Structural Database, then it will include bibliographic, chemical, 
# crystal, experimental, refinement or atomic coordinate data resulting 
# from the CCDC's data processing and validation procedures.
#
#######################################################################

data_YOMKUH
_symmetry_cell_setting           triclinic
_symmetry_space_group_name_H-M   'P -1'
_symmetry_Int_Tables_number      2
_space_group_name_Hall           '-P 1'
loop_
_symmetry_equiv_pos_site_id
_symmetry_equiv_pos_as_xyz
1 x,y,z
2 -x,-y,-z
_cell_length_a                   11.195(3)
_cell_length_b                   15.968(4)
_cell_length_c                   17.457(4)
_cell_angle_alpha                93.317(3)
_cell_angle_beta                 104.063(3)
_cell_angle_gamma                108.180(3)
_cell_volume                     2845.59
loop_
_atom_site_label
_atom_site_type_symbol
_atom_site_fract_x
_atom_site_fract_y
_atom_site_fract_z
Cu1 Cu -0.25408(5) -0.24191(4) -0.51418(3)
Cu2 Cu 0.78172(5) 0.27471(3) 0.02843(3)
S1 S -0.2273(3) 0.06578(13) -0.38977(13)
S2 S -0.27494(17) -0.56641(10) -0.56628(10)
S3 S 0.33196(16) 0.19816(14) 0.06840(12)
S4 S 1.10627(16) 0.36065(12) -0.12863(9)
N1 N -0.0592(3) -0.2173(2) -0.4616(2)
N2 N 0.6946(4) 0.1724(2) -0.0651(2)
N3 N -0.2966(3) -0.2945(2) -0.4158(2)
N4 N -0.3193(4) -0.6486(2) -0.0268(2)
N5 N -0.4488(3) -0.2715(2) -0.5673(2)
N6 N -1.1323(3) -0.6336(2) -0.8690(2)
N7 N 0.8738(4) 0.1936(2) 0.0880(2)
N8 N 0.7840(3) -0.1938(2) 0.3844(2)
N9 N -0.2345(5) -0.0959(3) -0.4605(3)
N10 N -0.2689(4) -0.3920(3) -0.5789(3)
N11 N 0.5908(5) 0.2091(3) 0.0846(3)
N12 N 0.9546(5) 0.3382(3) -0.0229(3)
C1 C 0.0292(5) -0.1363(3) -0.4566(3)
H1 H 0.0002 -0.0916 -0.4774
C2 C 0.1610(5) -0.1169(3) -0.4220(3)
H2 H 0.2186 -0.0599 -0.4202
C3 C 0.2085(5) -0.1811(3) -0.3901(3)
C4 C 0.1166(5) -0.2642(3) -0.3952(3)
H3 H 0.1425 -0.3100 -0.3742
C5 C -0.0138(4) -0.2789(3) -0.4314(3)
H4 H -0.0732 -0.3356 -0.4348
C6 C 0.3515(5) -0.1604(4) -0.3515(4)
H5 H 0.3981 -0.1478 -0.3920
H6 H 0.3647 -0.2126 -0.3302
C7 C 0.4099(5) -0.0816(4) -0.2846(3)
H7 H 0.3916 -0.0305 -0.3052
H8 H 0.3667 -0.0958 -0.2428
C8 C 0.5555(5) -0.0562(3) -0.2484(3)
H9 H 0.5749 -0.1059 -0.2252
H10 H 0.5999 -0.0430 -0.2898
C9 C 0.6046(4) 0.0240(3) -0.1849(3)
C10 C 0.5855(6) 0.0169(3) -0.1099(3)
H11 H 0.5421 -0.0384 -0.0978
C11 C 0.6302(5) 0.0910(3) -0.0535(3)
H12 H 0.6146 0.0839 -0.0039
C12 C 0.7127(5) 0.1803(3) -0.1383(3)
H13 H 0.7558 0.2364 -0.1491
C13 C 0.6698(5) 0.1084(3) -0.1975(3)
H14 H 0.6852 0.1170 -0.2470
C14 C -0.3648(4) -0.3807(3) -0.4205(3)
H15 H -0.3972 -0.4162 -0.4701
C15 C -0.3890(5) -0.4193(3) -0.3541(3)
H16 H -0.4356 -0.4798 -0.3598
C16 C -0.3441(4) -0.3681(3) -0.2796(3)
C17 C -0.2775(6) -0.2791(4) -0.2763(3)
H17 H -0.2472 -0.2416 -0.2278
C18 C -0.2553(5) -0.2451(3) -0.3443(3)
H18 H -0.2092 -0.1846 -0.3400
C19 C -0.3657(5) -0.4071(4) -0.2047(3)
H19 H -0.3214 -0.4506 -0.1957
H20 H -0.3259 -0.3599 -0.1595
C20 C -0.5066(5) -0.4510(4) -0.2080(3)
H21 H -0.5426 -0.5047 -0.2469
H22 H -0.5542 -0.4112 -0.2262
C21 C -0.5278(5) -0.4756(3) -0.1276(3)
H23 H -0.4999 -0.4213 -0.0902
H24 H -0.6205 -0.5050 -0.1345
C22 C -0.4544(4) -0.5359(3) -0.0926(3)
C23 C -0.5159(5) -0.6286(3) -0.1024(3)
H25 H -0.6028 -0.6544 -0.1322
C24 C -0.4475(5) -0.6808(3) -0.0679(3)
H26 H -0.4915 -0.7417 -0.0730
C25 C -0.2615(5) -0.5602(3) -0.0185(3)
H27 H -0.1736 -0.5359 0.0096
C26 C -0.3251(5) -0.5034(3) -0.0493(3)
H28 H -0.2802 -0.4424 -0.0406
C27 C -0.5232(4) -0.2416(3) -0.5317(3)
H29 H -0.4846 -0.2087 -0.4810
C28 C -0.6538(5) -0.2564(3) -0.5655(3)
H30 H -0.7006 -0.2336 -0.5378
C29 C -0.7156(5) -0.3051(3) -0.6406(3)
C30 C -0.6373(5) -0.3365(3) -0.6782(3)
H31 H -0.6736 -0.3696 -0.7289
C31 C -0.5073(5) -0.3186(3) -0.6407(3)
H32 H -0.4576 -0.3400 -0.6671
C32 C -0.8571(5) -0.3228(4) -0.6794(4)
H33 H -0.8789 -0.3520 -0.7337
H34 H -0.8726 -0.2664 -0.6819
C33 C -0.9469(5) -0.3805(4) -0.6358(4)
H35 H -0.9216 -0.3529 -0.5807
H36 H -1.0357 -0.3825 -0.6598
C34 C -0.9452(5) -0.4754(4) -0.6371(3)
H37 H -0.8553 -0.4739 -0.6202
H38 H -0.9895 -0.5038 -0.5993
C35 C -1.0100(4) -0.5301(3) -0.7182(3)
C36 C -1.1446(4) -0.5598(3) -0.7500(3)
H39 H -1.1971 -0.5453 -0.7213
C37 C -1.2006(4) -0.6107(3) -0.8241(3)
H40 H -1.2912 -0.6301 -0.8438
C38 C -1.0026(5) -0.6029(3) -0.8397(3)
H41 H -0.9520 -0.6159 -0.8707
C39 C -0.9401(4) -0.5524(3) -0.7654(3)
H42 H -0.8494 -0.5334 -0.7472
C40 C 0.9519(5) 0.1610(3) 0.0571(3)
H43 H 0.9689 0.1787 0.0099
C41 C 1.0077(5) 0.1023(3) 0.0926(3)
H44 H 1.0600 0.0807 0.0686
C42 C 0.9872(4) 0.0750(3) 0.1634(3)
C43 C 0.9096(5) 0.1114(3) 0.1963(3)
H45 H 0.8940 0.0966 0.2446
C44 C 0.8563(5) 0.1689(3) 0.1576(3)
H46 H 0.8048 0.1921 0.1809
C45 C 1.0432(5) 0.0085(4) 0.2006(4)
H47 H 1.0361 0.0079 0.2548
H48 H 1.1353 0.0264 0.2028
C46 C 0.9720(6) -0.0866(4) 0.1532(4)
H49 H 0.9738 -0.0847 0.0980
H50 H 1.0194 -0.1253 0.1748
C47 C 0.8296(6) -0.1269(3) 0.1554(3)
H51 H 0.7842 -0.0855 0.1386
H52 H 0.7877 -0.1812 0.1173
C48 C 0.8152(5) -0.1478(3) 0.2359(3)
C49 C 0.8758(5) -0.2030(3) 0.2759(3)
H53 H 0.9291 -0.2254 0.2536
C50 C 0.8569(5) -0.2244(3) 0.3478(3)
H54 H 0.8972 -0.2624 0.3727
C51 C 0.7273(5) -0.1397(3) 0.3471(3)
H55 H 0.6761 -0.1172 0.3712
C52 C 0.7411(5) -0.1157(3) 0.2745(3)
H56 H 0.7000 -0.0774 0.2512
C53 C -0.2346(5) -0.0305(4) -0.4323(3)
C54 C -0.2705(4) -0.4641(3) -0.5739(3)
C55 C 0.4834(5) 0.2048(3) 0.0782(3)
C56 C 1.0174(5) 0.3468(3) -0.0659(3)
Cu1_2 Cu 0.74592(5) -0.24191(4) 0.48582(3)
Cu2_2 Cu -0.21828(5) -0.72529(3) 0.02843(3)
Cu2_3 Cu -1.21828(5) -0.72529(3) -0.97157(3)
N4_2 N 0.6807(4) 0.3514(2) -0.0268(2)
N6_2 N 0.8677(3) 0.3664(2) 0.1310(2)
N8_2 N -0.2160(3) -0.1938(2) -0.6156(2)
loop_
_geom_bond_atom_site_label_1
_geom_bond_atom_site_label_2
_geom_bond_site_symmetry_1
_geom_bond_site_symmetry_2
Cu1 N1 1_555 1_555
Cu2 N2 1_555 1_555
S1 C53 1_555 1_555
S2 C54 1_555 1_555
S3 C55 1_555 1_555
S4 C56 1_555 1_555
N1 C1 1_555 1_555
N2 C11 1_555 1_555
N3 Cu1 1_555 1_555
N4 C24 1_555 1_555
N5 Cu1 1_555 1_555
N6 C37 1_555 1_555
N7 Cu2 1_555 1_555
N8 C50 1_555 1_555
N9 Cu1 1_555 1_555
N10 Cu1 1_555 1_555
N11 Cu2 1_555 1_555
N12 Cu2 1_555 1_555
C1 H1 1_555 1_555
C2 C1 1_555 1_555
H2 C2 1_555 1_555
C3 C2 1_555 1_555
C4 C3 1_555 1_555
H3 C4 1_555 1_555
C5 N1 1_555 1_555
H4 C5 1_555 1_555
C6 C3 1_555 1_555
H5 C6 1_555 1_555
H6 C6 1_555 1_555
C7 C6 1_555 1_555
H7 C7 1_555 1_555
H8 C7 1_555 1_555
C8 C7 1_555 1_555
H9 C8 1_555 1_555
H10 C8 1_555 1_555
C9 C8 1_555 1_555
C10 C9 1_555 1_555
H11 C10 1_555 1_555
C11 C10 1_555 1_555
H12 C11 1_555 1_555
C12 N2 1_555 1_555
H13 C12 1_555 1_555
C13 C9 1_555 1_555
H14 C13 1_555 1_555
C14 N3 1_555 1_555
H15 C14 1_555 1_555
C15 C14 1_555 1_555
H16 C15 1_555 1_555
C16 C15 1_555 1_555
C17 C16 1_555 1_555
H17 C17 1_555 1_555
C18 N3 1_555 1_555
H18 C18 1_555 1_555
C19 C16 1_555 1_555
H19 C19 1_555 1_555
H20 C19 1_555 1_555
C20 C19 1_555 1_555
H21 C20 1_555 1_555
H22 C20 1_555 1_555
C21 C20 1_555 1_555
H23 C21 1_555 1_555
H24 C21 1_555 1_555
C22 C21 1_555 1_555
C23 C22 1_555 1_555
H25 C23 1_555 1_555
C24 C23 1_555 1_555
H26 C24 1_555 1_555
C25 N4 1_555 1_555
H27 C25 1_555 1_555
C26 C22 1_555 1_555
H28 C26 1_555 1_555
C27 N5 1_555 1_555
H29 C27 1_555 1_555
C28 C27 1_555 1_555
H30 C28 1_555 1_555
C29 C28 1_555 1_555
C30 C29 1_555 1_555
H31 C30 1_555 1_555
C31 N5 1_555 1_555
H32 C31 1_555 1_555
C32 C29 1_555 1_555
H33 C32 1_555 1_555
H34 C32 1_555 1_555
C33 C32 1_555 1_555
H35 C33 1_555 1_555
H36 C33 1_555 1_555
C34 C33 1_555 1_555
H37 C34 1_555 1_555
H38 C34 1_555 1_555
C35 C34 1_555 1_555
C36 C35 1_555 1_555
H39 C36 1_555 1_555
C37 C36 1_555 1_555
H40 C37 1_555 1_555
C38 N6 1_555 1_555
H41 C38 1_555 1_555
C39 C35 1_555 1_555
H42 C39 1_555 1_555
C40 N7 1_555 1_555
H43 C40 1_555 1_555
C41 C40 1_555 1_555
H44 C41 1_555 1_555
C42 C41 1_555 1_555
C43 C42 1_555 1_555
H45 C43 1_555 1_555
C44 N7 1_555 1_555
H46 C44 1_555 1_555
C45 C42 1_555 1_555
H47 C45 1_555 1_555
H48 C45 1_555 1_555
C46 C45 1_555 1_555
H49 C46 1_555 1_555
H50 C46 1_555 1_555
C47 C46 1_555 1_555
H51 C47 1_555 1_555
H52 C47 1_555 1_555
C48 C47 1_555 1_555
C49 C48 1_555 1_555
H53 C49 1_555 1_555
C50 C49 1_555 1_555
H54 C50 1_555 1_555
C51 N8 1_555 1_555
H55 C51 1_555 1_555
C52 C48 1_555 1_555
H56 C52 1_555 1_555
C53 N9 1_555 1_555
C54 N10 1_555 1_555
C55 N11 1_555 1_555
C56 N12 1_555 1_555
Cu1_2 N8 1_555 1_555
Cu2_2 N4 1_555 1_555
Cu2_3 N6 1_555 1_555
N4_2 Cu2 1_555 1_555
N6_2 Cu2 1_555 1_555
N8_2 Cu1 1_555 1_555
C4 C5 1_555 1_555
C12 C13 1_555 1_555
C17 C18 1_555 1_555
C25 C26 1_555 1_555
C30 C31 1_555 1_555
C38 C39 1_555 1_555
C43 C44 1_555 1_555
C51 C52 1_555 1_555

#END
