
#######################################################################
#
#                 Cambridge Crystallographic Data Centre
#                                CCDC 
#
#######################################################################
#
# If this CIF has been generated from an entry in the Cambridge 
# Structural Database, then it will include bibliographic, chemical, 
# crystal, experimental, refinement or atomic coordinate data resulting 
# from the CCDC's data processing and validation procedures.
#
#######################################################################

data_YOMMIY
_symmetry_cell_setting           triclinic
_symmetry_space_group_name_H-M   'P -1'
_symmetry_Int_Tables_number      2
_space_group_name_Hall           '-P 1'
loop_
_symmetry_equiv_pos_site_id
_symmetry_equiv_pos_as_xyz
1 x,y,z
2 -x,-y,-z
_cell_length_a                   7.5976(7)
_cell_length_b                   9.0441(9)
_cell_length_c                   10.0519(10)
_cell_angle_alpha                71.9480(10)
_cell_angle_beta                 78.0050(10)
_cell_angle_gamma                74.2820(10)
_cell_volume                     626.328
loop_
_atom_site_label
_atom_site_type_symbol
_atom_site_fract_x
_atom_site_fract_y
_atom_site_fract_z
Co1 Co 0.5000 0.0000 0.5000
O1 O 0.42891(15) 0.19816(13) 0.33394(11)
O2 O 0.37769(17) 0.43558(14) 0.37921(12)
O3 O 0.98821(19) 0.3114(2) -0.05327(16)
O4 O 0.93984(15) 0.53172(14) -0.22983(12)
H1 H 1.0516 0.4983 -0.2578
O5 O 0.45805(15) -0.13117(13) 0.36464(11)
N1 N -0.22070(17) -0.02598(15) 0.40789(13)
N2 N 0.42684(18) -0.08226(16) 0.13431(14)
C1 C 0.3168(2) -0.0274(2) 0.01729(16)
H2 H 0.1841 -0.0001 0.0539
H3 H 0.3363 -0.1136 -0.0290
C2 C 0.3733(2) 0.1179(2) -0.08900(17)
H4 H 0.3070 0.1494 -0.1719
H5 H 0.3397 0.2082 -0.0458
C3 C 0.1536(2) -0.06512(18) 0.30824(15)
C4 C 0.0710(2) -0.19513(19) 0.35397(16)
H6 H 0.1415 -0.2990 0.3523
C5 C -0.1158(2) -0.16974(19) 0.40185(16)
H7 H -0.1727 -0.2583 0.4319
C6 C -0.1391(2) 0.09867(18) 0.36272(15)
H8 H -0.2123 0.2010 0.3666
C7 C 0.0459(2) 0.08506(19) 0.31087(16)
H9 H 0.0983 0.1763 0.2778
C8 C 0.4110(2) 0.34674(19) 0.29988(16)
C9 C 0.4486(2) 0.42472(17) 0.14297(16)
C10 C 0.6309(2) 0.39705(18) 0.08046(16)
H10 H 0.7221 0.3256 0.1359
C11 C 0.6853(2) 0.47015(18) -0.06062(16)
C12 C 0.8868(2) 0.4285(2) -0.11361(16)
C13 C 0.3596(2) -0.09290(18) 0.26951(16)
O1A O 0.57109(15) 0.80184(13) -0.33394(11)
O2A O 0.62231(17) 0.56442(14) -0.37921(12)
O3A O 0.01179(19) 0.6886(2) 0.05327(16)
O4A O 0.06016(15) 0.46828(14) 0.22983(12)
H1A H -0.0516 0.5017 0.2578
C8A C 0.5890(2) 0.65326(19) -0.29988(16)
C9A C 0.5514(2) 0.57528(17) -0.14297(16)
C10A C 0.3691(2) 0.60295(18) -0.08046(16)
H10A H 0.2779 0.6744 -0.1359
C11A C 0.3147(2) 0.52985(18) 0.06062(16)
C12A C 0.1132(2) 0.5715(2) 0.11361(16)
O5A O 0.54195(15) 0.13117(13) -0.36464(11)
N1A N 1.22070(17) 0.02598(15) -0.40789(13)
N2A N 0.57316(18) 0.08226(16) -0.13431(14)
C1A C 0.6832(2) 0.0274(2) -0.01729(16)
H2A H 0.8159 0.0001 -0.0539
H3A H 0.6637 0.1136 0.0290
C2A C 0.6267(2) -0.1179(2) 0.08900(17)
H4A H 0.6930 -0.1494 0.1719
H5A H 0.6603 -0.2082 0.0458
C3A C 0.8464(2) 0.06512(18) -0.30824(15)
C4A C 0.9290(2) 0.19513(19) -0.35397(16)
H6A H 0.8585 0.2990 -0.3523
C5A C 1.1158(2) 0.16974(19) -0.40185(16)
H7A H 1.1727 0.2583 -0.4319
C6A C 1.1391(2) -0.09867(18) -0.36272(15)
H8A H 1.2123 -0.2010 -0.3666
C7A C 0.9541(2) -0.08506(19) -0.31087(16)
H9A H 0.9017 -0.1763 -0.2778
C13A C 0.6404(2) 0.09290(18) -0.26951(16)
Co1_2 Co -0.5000 0.0000 0.5000
Co1_3 Co 0.5000 0.0000 -0.5000
Co1_4 Co 0.5000 1.0000 -0.5000
Co1_5 Co 1.5000 0.0000 -0.5000
O1A_2 O 0.57109(15) -0.19816(13) 0.66606(11)
O5A_2 O 0.54195(15) 0.13117(13) 0.63536(11)
N1_2 N 0.77930(17) -0.02598(15) 0.40789(13)
N1A_2 N 0.22070(17) 0.02598(15) 0.59211(13)
O6 O 0.28059(17) 0.47677(16) 0.64587(13)
H11 H 0.380(2) 0.488(3) 0.660(2)
H12 H 0.305(3) 0.453(2) 0.5677(18)
loop_
_geom_bond_atom_site_label_1
_geom_bond_atom_site_label_2
_geom_bond_site_symmetry_1
_geom_bond_site_symmetry_2
Co1 O1 1_555 1_555
O1 C8 1_555 1_555
O2 C8 1_555 1_555
O3 C12 1_555 1_555
O4 H1 1_555 1_555
O5 Co1 1_555 1_555
N1 C5 1_555 1_555
N2 C1 1_555 1_555
C1 H2 1_555 1_555
H3 C1 1_555 1_555
C2 C1 1_555 1_555
H4 C2 1_555 1_555
H5 C2 1_555 1_555
C3 C4 1_555 1_555
C4 H6 1_555 1_555
C5 C4 1_555 1_555
H7 C5 1_555 1_555
C6 N1 1_555 1_555
H8 C6 1_555 1_555
C7 C3 1_555 1_555
H9 C7 1_555 1_555
C8 C9 1_555 1_555
C9 C10 1_555 1_555
C10 H10 1_555 1_555
C11 C10 1_555 1_555
C12 O4 1_555 1_555
C13 O5 1_555 1_555
O6 H11 1_555 1_555
H12 O6 1_555 1_555
O1A C8A 1_555 1_555
O2A C8A 1_555 1_555
O3A C12A 1_555 1_555
O4A H1A 1_555 1_555
C8A C9A 1_555 1_555
C9A C11 1_555 1_555
C10A C9A 1_555 1_555
H10A C10A 1_555 1_555
C11A C9 1_555 1_555
C12A O4A 1_555 1_555
O5A C13A 1_555 1_555
N1A C5A 1_555 1_555
N2A C2 1_555 1_555
C1A N2A 1_555 1_555
H2A C1A 1_555 1_555
H3A C1A 1_555 1_555
C2A N2 1_555 1_555
H4A C2A 1_555 1_555
H5A C2A 1_555 1_555
C3A C4A 1_555 1_555
C4A H6A 1_555 1_555
C5A C4A 1_555 1_555
H7A C5A 1_555 1_555
C6A N1A 1_555 1_555
H8A C6A 1_555 1_555
C7A C3A 1_555 1_555
H9A C7A 1_555 1_555
C13A N2A 1_555 1_555
Co1_2 N1 1_555 1_555
Co1_3 O5A 1_555 1_555
Co1_4 O1A 1_555 1_555
Co1_5 N1A 1_555 1_555
O1A_2 Co1 1_555 1_555
O5A_2 Co1 1_555 1_555
N1_2 Co1 1_555 1_555
N1A_2 Co1 1_555 1_555
N2 C13 1_555 1_555
C3 C13 1_555 1_555
C6 C7 1_555 1_555
C11 C12 1_555 1_555
C10A C11A 1_555 1_555
C11A C12A 1_555 1_555
C1A C2A 1_555 1_555
C3A C13A 1_555 1_555
C6A C7A 1_555 1_555

#END
