
#######################################################################
#
#                 Cambridge Crystallographic Data Centre
#                                CCDC 
#
#######################################################################
#
# If this CIF has been generated from an entry in the Cambridge 
# Structural Database, then it will include bibliographic, chemical, 
# crystal, experimental, refinement or atomic coordinate data resulting 
# from the CCDC's data processing and validation procedures.
#
#######################################################################

data_YOMNUL02
_symmetry_cell_setting           monoclinic
_symmetry_space_group_name_H-M   'P 21'
_symmetry_Int_Tables_number      4
_space_group_name_Hall           'P 2yb'
loop_
_symmetry_equiv_pos_site_id
_symmetry_equiv_pos_as_xyz
1 x,y,z
2 -x,1/2+y,-z
_cell_length_a                   4.8140(12)
_cell_length_b                   19.924(5)
_cell_length_c                   5.5056(14)
_cell_angle_alpha                90
_cell_angle_beta                 103.356(4)
_cell_angle_gamma                90
_cell_volume                     513.783
loop_
_atom_site_label
_atom_site_type_symbol
_atom_site_fract_x
_atom_site_fract_y
_atom_site_fract_z
Ag1 Ag 0.21267(11) 0.85778(2) 0.42889(11)
Ag2 Ag -0.43812(12) 0.86695(3) -0.00853(11)
C1 C -0.0241(15) 0.7564(4) 0.0253(14)
C2 C 0.1420(17) 0.6944(4) 0.1451(16)
H1 H 0.0193 0.6542 0.1037
H2 H 0.3111 0.688 0.0739
C3 C 0.2383(15) 0.7006(4) 0.4247(14)
H3 H 0.067 0.7047 0.4974
C4 C 0.4045(14) 0.6375(4) 0.5277(15)
C5 C 0.3883(15) 0.5246(4) 0.6943(15)
H4 H 0.5685 0.52 0.6347
C6 C 0.4690(18) 0.5260(5) 0.9784(17)
H5 H 0.5824 0.5668 1.0361
H6 H 0.2937 0.5275 1.0433
C7 C 0.1968(15) 0.4652(4) 0.5919(14)
N1 N 0.4188(13) 0.7603(4) 0.4921(13)
H7 H 0.5704 0.7587 0.3975
H8 H 0.5137 0.7569 0.6714
N2 N 0.2532(13) 0.5877(3) 0.5962(13)
H9 H 0.0686 0.593 0.5818
N3 N 0.6372(15) 0.4656(4) 1.0760(13)
H10 H 0.7042 0.4712 1.2588
H11 H 0.809 0.4653 1.0059
O1 O 0.0592(14) 0.7892(4) -0.1334(13)
O2 O -0.2444(13) 0.7711(4) 0.1049(14)
O3 O 0.6623(11) 0.6327(3) 0.5399(14)
O4 O 0.2641(15) 0.4287(4) 0.4314(15)
O5 O -0.0230(12) 0.4560(3) 0.6792(13)
Ag1_2 Ag -0.78733(11) 0.85778(2) -0.57111(11)
Ag1A Ag -0.21267(11) 0.35778(2) 0.57111(11)
Ag2_2 Ag 0.56188(12) 0.86695(3) 0.99147(11)
Ag2A Ag 0.43812(12) 0.36695(3) 1.00853(11)
N3A N -0.6372(15) 0.9656(4) -0.0760(13)
O5A O 0.0230(12) 0.9560(3) 0.3208(13)
loop_
_geom_bond_atom_site_label_1
_geom_bond_atom_site_label_2
_geom_bond_site_symmetry_1
_geom_bond_site_symmetry_2
Ag1 N1 1_555 1_555
Ag2 O2 1_555 1_555
C1 C2 1_555 1_555
C2 H1 1_555 1_555
H2 C2 1_555 1_555
C3 C2 1_555 1_555
H3 C3 1_555 1_555
C4 C3 1_555 1_555
C5 H4 1_555 1_555
C6 C5 1_555 1_555
H5 C6 1_555 1_555
H6 C6 1_555 1_555
C7 C5 1_555 1_555
N1 C3 1_555 1_555
H7 N1 1_555 1_555
H8 N1 1_555 1_555
N2 C4 1_555 1_555
H9 N2 1_555 1_555
N3 C6 1_555 1_555
H10 N3 1_555 1_555
H11 N3 1_555 1_555
O1 C1 1_555 1_555
O2 C1 1_555 1_555
O3 C4 1_555 1_555
O4 C7 1_555 1_555
O5 C7 1_555 1_555
Ag1_2 Ag2 1_555 1_555
Ag1A O5 1_555 1_555
Ag2_2 Ag1 1_555 1_555
Ag2A N3 1_555 1_555
N3A Ag2 1_555 1_555
O5A Ag1 1_555 1_555
C5 N2 1_555 1_555

#END
