
#######################################################################
#
#                 Cambridge Crystallographic Data Centre
#                                CCDC 
#
#######################################################################
#
# If this CIF has been generated from an entry in the Cambridge 
# Structural Database, then it will include bibliographic, chemical, 
# crystal, experimental, refinement or atomic coordinate data resulting 
# from the CCDC's data processing and validation procedures.
#
#######################################################################

data_YOMNUL03
_symmetry_cell_setting           monoclinic
_symmetry_space_group_name_H-M   'P 21'
_symmetry_Int_Tables_number      4
_space_group_name_Hall           'P 2yb'
loop_
_symmetry_equiv_pos_site_id
_symmetry_equiv_pos_as_xyz
1 x,y,z
2 -x,1/2+y,-z
_cell_length_a                   4.8259(7)
_cell_length_b                   19.954(3)
_cell_length_c                   5.5272(8)
_cell_angle_alpha                90
_cell_angle_beta                 103.186(2)
_cell_angle_gamma                90
_cell_volume                     518.214
loop_
_atom_site_label
_atom_site_type_symbol
_atom_site_fract_x
_atom_site_fract_y
_atom_site_fract_z
Ag1 Ag 0.21164(10) 0.85762(2) 0.43191(9)
Ag2 Ag -0.43528(11) 0.86713(2) -0.00814(9)
C1 C -0.0239(14) 0.7566(3) 0.0273(12)
C2 C 0.1410(16) 0.6943(3) 0.1451(13)
H1 H 0.0193 0.6547 0.1038
H2 H 0.3079 0.688 0.0744
C3 C 0.2378(13) 0.7002(3) 0.4258(11)
H3 H 0.0685 0.7039 0.4978
C4 C 0.4037(12) 0.6373(3) 0.5271(12)
C5 C 0.3857(14) 0.5247(3) 0.6925(13)
H4 H 0.5631 0.5203 0.6325
C6 C 0.4678(16) 0.5255(4) 0.9754(14)
H5 H 0.58 0.5659 1.0318
H6 H 0.295 0.5274 1.04
C7 C 0.1957(13) 0.4654(3) 0.5914(12)
N1 N 0.4171(11) 0.7602(3) 0.4934(11)
H7 H 0.5671 0.7589 0.4001
H8 H 0.5105 0.7569 0.67
N2 N 0.2500(11) 0.5875(3) 0.5951(11)
H9 H 0.068 0.5927 0.5809
N3 N 0.6349(13) 0.4656(3) 1.0758(11)
H10 H 0.6978 0.4714 1.256
H11 H 0.8062 0.4651 1.0088
O1 O 0.0594(12) 0.7894(3) -0.1313(10)
O2 O -0.2427(11) 0.7712(3) 0.1075(11)
O3 O 0.6604(10) 0.6326(3) 0.5393(12)
O4 O 0.2626(14) 0.4291(3) 0.4337(12)
O5 O -0.0222(10) 0.4562(3) 0.6778(10)
Ag1_2 Ag -0.78836(10) 0.85762(2) -0.56809(9)
Ag1A Ag -0.21164(10) 0.35762(2) 0.56809(9)
Ag2_2 Ag 0.56472(11) 0.86713(2) 0.99186(9)
Ag2A Ag 0.43528(11) 0.36713(2) 1.00814(9)
N3A N -0.6349(13) 0.9656(3) -0.0758(11)
O5A O 0.0222(10) 0.9562(3) 0.3222(10)
loop_
_geom_bond_atom_site_label_1
_geom_bond_atom_site_label_2
_geom_bond_site_symmetry_1
_geom_bond_site_symmetry_2
Ag1 N1 1_555 1_555
Ag2 O2 1_555 1_555
C1 C2 1_555 1_555
C2 H1 1_555 1_555
H2 C2 1_555 1_555
C3 C2 1_555 1_555
H3 C3 1_555 1_555
C4 C3 1_555 1_555
C5 H4 1_555 1_555
C6 C5 1_555 1_555
H5 C6 1_555 1_555
H6 C6 1_555 1_555
C7 C5 1_555 1_555
N1 C3 1_555 1_555
H7 N1 1_555 1_555
H8 N1 1_555 1_555
N2 C4 1_555 1_555
H9 N2 1_555 1_555
N3 C6 1_555 1_555
H10 N3 1_555 1_555
H11 N3 1_555 1_555
O1 C1 1_555 1_555
O2 C1 1_555 1_555
O3 C4 1_555 1_555
O4 C7 1_555 1_555
O5 C7 1_555 1_555
Ag1_2 Ag2 1_555 1_555
Ag1A O5 1_555 1_555
Ag2_2 Ag1 1_555 1_555
Ag2A N3 1_555 1_555
N3A Ag2 1_555 1_555
O5A Ag1 1_555 1_555
C5 N2 1_555 1_555

#END
