
#######################################################################
#
#                 Cambridge Crystallographic Data Centre
#                                CCDC 
#
#######################################################################
#
# If this CIF has been generated from an entry in the Cambridge 
# Structural Database, then it will include bibliographic, chemical, 
# crystal, experimental, refinement or atomic coordinate data resulting 
# from the CCDC's data processing and validation procedures.
#
#######################################################################

data_YOMZOR
_symmetry_cell_setting           monoclinic
_symmetry_space_group_name_H-M   'P 21/c'
_symmetry_Int_Tables_number      14
_space_group_name_Hall           '-P 2ybc'
loop_
_symmetry_equiv_pos_site_id
_symmetry_equiv_pos_as_xyz
1 x,y,z
2 -x,1/2+y,1/2-z
3 -x,-y,-z
4 x,1/2-y,1/2+z
_cell_length_a                   13.5641(2)
_cell_length_b                   28.4974(2)
_cell_length_c                   24.4899(3)
_cell_angle_alpha                90
_cell_angle_beta                 105.7450(10)
_cell_angle_gamma                90
_cell_volume                     9111.18
loop_
_atom_site_label
_atom_site_type_symbol
_atom_site_fract_x
_atom_site_fract_y
_atom_site_fract_z
C86 C 0.5614(10) 0.0873(4) 0.2640(6)
H93 H 0.6226 0.0809 0.2951
H94 H 0.5619 0.1202 0.2524
H95 H 0.5608 0.0668 0.2318
C87 C 0.4622(6) 0.0777(2) 0.2848(3)
C88 C 0.4699(8) 0.0671(3) 0.3393(4)
H96 H 0.5376 0.0616 0.3622
C89 C 0.3989(7) 0.0632(3) 0.3652(4)
H97 H 0.4134 0.0557 0.4044
C90 C 0.2918(6) 0.0713(3) 0.3288(3)
H98 H 0.2348 0.0695 0.3443
C91 C 0.2793(6) 0.0809(2) 0.2748(3)
H99 H 0.2122 0.0859 0.2509
C92 C 0.3667(7) 0.0841(3) 0.2512(4)
H100 H 0.3562 0.0906 0.2120
C93 C 0.4351(6) 0.2961(3) 0.2107(3)
C94 C 0.3236(15) 0.2826(7) 0.1816(8)
H101 H 0.2708 0.3045 0.1815
C95 C 0.3002(15) 0.2438(7) 0.1580(8)
H102 H 0.2467 0.2421 0.1238
C96 C 0.3419(10) 0.2102(5) 0.1769(5)
H103 H 0.3101 0.1807 0.1658
C97 C 0.4336(14) 0.2113(7) 0.2139(7)
H104 H 0.4674 0.1835 0.2304
C98 C 0.4815(12) 0.2591(5) 0.2284(6)
H105 H 0.5498 0.2610 0.2518
C99 C 0.4472(10) 0.3489(4) 0.2054(5)
H106 H 0.3872 0.3618 0.1766
H107 H 0.4559 0.3740 0.2431
H108 H 0.4997 0.3681 0.1890
Ag1 Ag 0.85848(2) 0.21109(2) 0.06912(2)
Ag2 Ag 1.01404(2) 0.17105(2) -0.06141(2)
Ag3 Ag 1.08217(2) 0.30791(2) 0.02814(2)
P1 P 1.07396(4) 0.37774(2) 0.37357(2)
P2 P 0.97674(5) 0.16236(2) 0.14445(2)
P3 P 0.17394(5) 0.38079(2) 0.02783(3)
P4 P 0.69643(5) 0.22614(2) 0.09391(3)
S1 S 0.85651(4) 0.18248(2) -0.03178(2)
S2 S 1.12819(5) 0.23821(2) -0.02003(3)
S3 S 0.95263(4) 0.29206(2) 0.07949(2)
C1 C 0.97681(19) 0.41410(7) 0.32632(9)
C2 C 1.0013(2) 0.44861(8) 0.29159(11)
H1 H 1.0707 0.4543 0.2926
C3 C 0.9232(3) 0.47461(9) 0.25548(12)
H2 H 0.9396 0.4981 0.2319
C4 C 0.8229(3) 0.46649(11) 0.25390(12)
H3 H 0.7703 0.4844 0.2292
C5 C 0.7978(2) 0.43263(11) 0.28784(12)
H4 H 0.7282 0.4270 0.2865
C6 C 0.8752(2) 0.40674(9) 0.32413(10)
H5 H 0.8579 0.3836 0.3479
C7 C 1.18000(19) 0.41898(7) 0.39811(9)
C8 C 1.2776(2) 0.40933(9) 0.39389(11)
H6 H 1.2905 0.3805 0.3777
C9 C 1.3570(2) 0.44105(10) 0.41288(14)
H7 H 1.4238 0.4337 0.4102
C10 C 1.3386(3) 0.48336(10) 0.43564(13)
H8 H 1.3924 0.5055 0.4478
C11 C 1.2422(2) 0.49342(9) 0.44070(12)
H9 H 1.2300 0.5224 0.4569
C12 C 1.1632(2) 0.46169(8) 0.42232(10)
H10 H 1.0970 0.4689 0.4261
C13 C 1.11983(18) 0.33953(7) 0.32554(9)
H11 H 1.1386 0.3591 0.2965
H12 H 1.1825 0.3231 0.3474
C14 C 1.04125(18) 0.30327(7) 0.29600(9)
H13 H 0.9784 0.3193 0.2738
H14 H 1.0227 0.2832 0.3247
C15 C 1.08413(18) 0.27284(8) 0.25661(9)
H15 H 1.1486 0.2581 0.2790
H16 H 1.1010 0.2932 0.2276
C16 C 1.01102(19) 0.23436(8) 0.22666(9)
H17 H 0.9509 0.2488 0.1996
H18 H 0.9864 0.2164 0.2550
C17 C 1.06439(18) 0.20108(8) 0.19472(10)
H19 H 1.1140 0.1816 0.2227
H20 H 1.1035 0.2200 0.1738
C18 C 0.9251(2) 0.12252(8) 0.18798(10)
C19 C 0.8375(2) 0.09735(10) 0.16233(13)
H21 H 0.8061 0.1010 0.1229
C20 C 0.7952(3) 0.06686(12) 0.19387(17)
H22 H 0.7357 0.0493 0.1760
C21 C 0.8402(4) 0.06207(12) 0.25172(17)
H23 H 0.8103 0.0418 0.2736
C22 C 0.9279(4) 0.08650(11) 0.27752(14)
H24 H 0.9589 0.0829 0.3170
C23 C 0.9708(3) 0.11635(9) 0.24586(11)
H25 H 1.0320 0.1328 0.2637
C24 C 1.06592(17) 0.12518(7) 0.12053(9)
C25 C 1.0841(2) 0.07828(8) 0.13539(10)
H26 H 1.0505 0.0640 0.1605
C26 C 1.1512(3) 0.05215(9) 0.11367(13)
H27 H 1.1627 0.0200 0.1235
C27 C 1.2013(2) 0.07295(9) 0.07773(12)
H28 H 1.2480 0.0552 0.0634
C28 C 1.1836(2) 0.11959(9) 0.06255(11)
H29 H 1.2177 0.1337 0.0376
C29 C 1.11619(18) 0.14551(8) 0.08367(9)
H30 H 1.1039 0.1775 0.0730
C30 C 0.21068(19) 0.40997(8) 0.09718(10)
C31 C 0.2788(3) 0.44686(10) 0.10926(14)
H31 H 0.3076 0.4586 0.0807
C32 C 0.3056(3) 0.46697(13) 0.16288(16)
H32 H 0.3528 0.4923 0.1709
C33 C 0.2640(3) 0.45026(11) 0.20434(13)
H33 H 0.2837 0.4634 0.2414
C34 C 0.1939(3) 0.41454(11) 0.19211(12)
H34 H 0.1631 0.4037 0.2203
C35 C 0.1678(2) 0.39411(10) 0.13882(11)
H35 H 0.1201 0.3690 0.1309
C36 C 0.10121(19) 0.42550(8) -0.01945(10)
C37 C 0.1440(2) 0.45716(10) -0.04991(13)
H36 H 0.2156 0.4564 -0.0463
C38 C 0.0825(3) 0.48981(10) -0.08550(13)
H37 H 0.1120 0.5111 -0.1064
C39 C -0.0202(3) 0.49143(10) -0.09068(12)
H38 H -0.0618 0.5140 -0.1150
C40 C -0.0639(2) 0.46045(10) -0.06080(12)
H39 H -0.1354 0.4617 -0.0644
C41 C -0.0033(2) 0.42763(9) -0.02559(11)
H40 H -0.0338 0.4062 -0.0053
C42 C 0.29547(18) 0.37453(8) 0.00946(10)
H41 H 0.2820 0.3669 -0.0313
H42 H 0.3339 0.4044 0.0167
C43 C 0.35889(18) 0.33546(8) 0.04517(11)
H43 H 0.3704 0.3433 0.0858
H44 H 0.3190 0.3059 0.0379
C44 C 0.46216(18) 0.32727(8) 0.03345(11)
H45 H 0.5054 0.3556 0.0444
H46 H 0.4519 0.3220 -0.0077
C45 C 0.51684(18) 0.28507(8) 0.06628(11)
H47 H 0.4721 0.2572 0.0561
H48 H 0.5280 0.2909 0.1074
C46 C 0.61959(18) 0.27452(8) 0.05487(11)
H49 H 0.6432 0.2925 0.0283
C47 C 0.71524(19) 0.23983(10) 0.16904(11)
C48 C 0.7241(2) 0.28574(11) 0.18813(14)
H50 H 0.7112 0.3108 0.1616
C49 C 0.7516(3) 0.29524(15) 0.24578(16)
H51 H 0.7570 0.3269 0.2583
C50 C 0.7712(3) 0.25986(17) 0.28498(15)
H52 H 0.7906 0.2669 0.3244
C51 C 0.7626(3) 0.21356(15) 0.26681(13)
H53 H 0.7759 0.1888 0.2938
C52 C 0.7346(2) 0.20345(12) 0.20911(11)
H54 H 0.7284 0.1717 0.1968
C53 C 0.61037(17) 0.17571(8) 0.08150(9)
C54 C 0.53613(19) 0.16759(9) 0.10994(11)
H55 H 0.5279 0.1891 0.1380
C55 C 0.4740(2) 0.12815(10) 0.09746(12)
H56 H 0.4239 0.1226 0.1173
C56 C 0.4847(2) 0.09688(9) 0.05638(13)
H57 H 0.4416 0.0701 0.0478
C57 C 0.5581(2) 0.10468(9) 0.02779(12)
H58 H 0.5654 0.0833 -0.0006
C58 C 0.6209(2) 0.14365(8) 0.04062(10)
H59 H 0.6720 0.1486 0.0213
C59 C 0.77011(17) 0.13616(7) -0.06028(9)
C60 C 0.67127(18) 0.14714(8) -0.09440(10)
C61 C 0.6062(2) 0.11088(10) -0.12039(11)
H60 H 0.5401 0.1185 -0.1439
C62 C 0.6349(2) 0.06404(9) -0.11300(11)
C63 C 0.7300(2) 0.05403(8) -0.07676(11)
H61 H 0.7495 0.0221 -0.0697
C64 C 0.79821(18) 0.08880(8) -0.05014(9)
C65 C 0.6351(2) 0.19705(9) -0.10278(12)
H62 H 0.5650 0.1979 -0.1277
H63 H 0.6803 0.2150 -0.1202
H64 H 0.6362 0.2109 -0.0660
C66 C 0.5672(3) 0.02508(12) -0.14486(15)
H65 H 0.6007 -0.0053 -0.1338
H66 H 0.5558 0.0297 -0.1858
H67 H 0.5013 0.0256 -0.1356
C67 C 0.9008(2) 0.07446(9) -0.01299(12)
H68 H 0.9053 0.0401 -0.0114
H69 H 0.9095 0.0869 0.0253
H70 H 0.9548 0.0870 -0.0286
C68 C 1.20549(19) 0.25604(8) -0.06417(10)
C69 C 1.30124(19) 0.23336(8) -0.05712(10)
C70 C 1.3661(2) 0.24825(10) -0.08833(12)
H71 H 1.4299 0.2328 -0.0836
C71 C 1.3408(3) 0.28481(11) -0.12606(14)
C72 C 1.2463(3) 0.30612(11) -0.13409(12)
H72 H 1.2280 0.3311 -0.1605
C73 C 1.1763(3) 0.29171(10) -0.10409(11)
C74 C 1.3332(2) 0.19335(9) -0.01625(12)
H73 H 1.4013 0.1823 -0.0170
H74 H 1.2838 0.1676 -0.0272
H75 H 1.3354 0.2040 0.0221
C75 C 1.4177(5) 0.30246(16) -0.1570(2)
H76 H 1.4797 0.2831 -0.1463
H77 H 1.4356 0.3352 -0.1463
H78 H 1.3872 0.3004 -0.1980
C76 C 1.0730(3) 0.31442(13) -0.11550(13)
H79 H 1.0345 0.3002 -0.0912
H80 H 1.0356 0.3098 -0.1554
H81 H 1.0814 0.3481 -0.1074
C77 C 0.86048(18) 0.33770(7) 0.06005(10)
C78 C 0.8435(2) 0.36767(8) 0.10271(11)
C79 C 0.7667(2) 0.40177(9) 0.08768(13)
H82 H 0.7539 0.4210 0.1166
C80 C 0.7088(2) 0.40855(9) 0.03252(14)
C81 C 0.7275(2) 0.37948(9) -0.00916(13)
H83 H 0.6884 0.3836 -0.0474
C82 C 0.8022(2) 0.34431(8) 0.00338(11)
C83 C 0.9049(2) 0.36306(10) 0.16327(11)
H84 H 0.8823 0.3867 0.1863
H85 H 0.9776 0.3678 0.1659
H86 H 0.8950 0.3317 0.1772
C84 C 0.6272(3) 0.44619(12) 0.01800(19)
H87 H 0.5939 0.4456 -0.0229
H88 H 0.6587 0.4770 0.0286
H89 H 0.5761 0.4404 0.0388
C85 C 0.8174(2) 0.31407(10) -0.04394(11)
H90 H 0.7701 0.3240 -0.0799
H91 H 0.8039 0.2812 -0.0365
H92 H 0.8881 0.3172 -0.0463
Ag2C Ag 1.01404(2) 0.32895(2) 0.43859(2)
Ag3_2 Ag 0.08217(2) 0.30791(2) 0.02814(2)
P1C P 1.07396(4) 0.12226(2) -0.12643(2)
P3_2 P 1.17394(5) 0.38079(2) 0.02783(3)
C100? C 0.3382(15) 0.0581(6) 0.3610(7)
H109? H 0.2923 0.0315 0.3474
H110? H 0.2978 0.0856 0.3656
H111? H 0.3860 0.0501 0.3976
C101? C 0.3925(17) 0.0680(7) 0.3223(9)
C102? C 0.3291(13) 0.0805(4) 0.2644(6)
H112? H 0.2567 0.0815 0.2497
C103? C 0.414(2) 0.0913(8) 0.2350(11)
H113? H 0.3886 0.1062 0.1992
C104? C 0.5105(18) 0.0846(6) 0.2487(8)
H114? H 0.5502 0.0790 0.2227
C105? C 0.5449(18) 0.0865(7) 0.3013(9)
H115? H 0.6112 0.1001 0.3135
C106? C 0.5080(11) 0.0737(5) 0.3433(6)
H116? H 0.5477 0.0686 0.3812
C107? C 0.5533(9) 0.4086(4) 0.1775(4)
H117? H 0.6081 0.4316 0.1914
H118? H 0.4944 0.4241 0.1516
H119? H 0.5781 0.3835 0.1574
C108? C 0.5226(7) 0.3888(3) 0.2256(3)
H120? H 0.4904 0.4135 0.2434
H121? H 0.5837 0.3770 0.2544
C109? C 0.4146(8) 0.3273(3) 0.2415(4)
H122? H 0.3772 0.3505 0.2585
H123? H 0.4755 0.3177 0.2720
C110? C 0.3482(10) 0.2857(4) 0.2272(6)
H124? H 0.3447 0.2716 0.2636
H125? H 0.2785 0.2972 0.2081
C111? C 0.3694(13) 0.2477(5) 0.1927(6)
H126? H 0.3121 0.2255 0.1843
H127? H 0.4322 0.2316 0.2133
H128? H 0.3782 0.2605 0.1571
C112? C 0.4961(14) 0.3538(6) 0.2248(7)
H129? H 0.5655 0.3503 0.2499
H130? H 0.4800 0.3258 0.1858
loop_
_geom_bond_atom_site_label_1
_geom_bond_atom_site_label_2
_geom_bond_site_symmetry_1
_geom_bond_site_symmetry_2
Ag1 P2 1_555 1_555
Ag2 S1 1_555 1_555
Ag3 S2 1_555 1_555
P1 C1 1_555 1_555
P2 C17 1_555 1_555
P3 C30 1_555 1_555
P4 Ag1 1_555 1_555
S1 Ag1 1_555 1_555
S2 Ag2 1_555 1_555
S3 Ag1 1_555 1_555
C1 C2 1_555 1_555
C2 H1 1_555 1_555
C3 C2 1_555 1_555
H2 C3 1_555 1_555
C4 C3 1_555 1_555
H3 C4 1_555 1_555
C5 C4 1_555 1_555
H4 C5 1_555 1_555
C6 C1 1_555 1_555
H5 C6 1_555 1_555
C7 P1 1_555 1_555
C8 C7 1_555 1_555
H6 C8 1_555 1_555
C9 C8 1_555 1_555
H7 C9 1_555 1_555
C10 C9 1_555 1_555
H8 C10 1_555 1_555
C11 C10 1_555 1_555
H9 C11 1_555 1_555
C12 C7 1_555 1_555
H10 C12 1_555 1_555
C13 P1 1_555 1_555
H11 C13 1_555 1_555
H12 C13 1_555 1_555
C14 C13 1_555 1_555
H13 C14 1_555 1_555
H14 C14 1_555 1_555
C15 C14 1_555 1_555
H15 C15 1_555 1_555
H16 C15 1_555 1_555
C16 C15 1_555 1_555
H17 C16 1_555 1_555
H18 C16 1_555 1_555
C17 C16 1_555 1_555
H19 C17 1_555 1_555
H20 C17 1_555 1_555
C18 P2 1_555 1_555
C19 C18 1_555 1_555
H21 C19 1_555 1_555
C20 C19 1_555 1_555
H22 C20 1_555 1_555
C21 C20 1_555 1_555
H23 C21 1_555 1_555
C22 C21 1_555 1_555
H24 C22 1_555 1_555
C23 C18 1_555 1_555
H25 C23 1_555 1_555
C24 P2 1_555 1_555
C25 C24 1_555 1_555
H26 C25 1_555 1_555
C26 C25 1_555 1_555
H27 C26 1_555 1_555
C27 C26 1_555 1_555
H28 C27 1_555 1_555
C28 C27 1_555 1_555
H29 C28 1_555 1_555
C29 C24 1_555 1_555
H30 C29 1_555 1_555
C30 C31 1_555 1_555
C31 H31 1_555 1_555
C32 C31 1_555 1_555
H32 C32 1_555 1_555
C33 C32 1_555 1_555
H33 C33 1_555 1_555
C34 C33 1_555 1_555
H34 C34 1_555 1_555
C35 C30 1_555 1_555
H35 C35 1_555 1_555
C36 P3 1_555 1_555
C37 C36 1_555 1_555
H36 C37 1_555 1_555
C38 C37 1_555 1_555
H37 C38 1_555 1_555
C39 C38 1_555 1_555
H38 C39 1_555 1_555
C40 C39 1_555 1_555
H39 C40 1_555 1_555
C41 C36 1_555 1_555
H40 C41 1_555 1_555
C42 P3 1_555 1_555
H41 C42 1_555 1_555
H42 C42 1_555 1_555
C43 C42 1_555 1_555
H43 C43 1_555 1_555
H44 C43 1_555 1_555
C44 C43 1_555 1_555
H45 C44 1_555 1_555
H46 C44 1_555 1_555
C45 C44 1_555 1_555
H47 C45 1_555 1_555
H48 C45 1_555 1_555
C46 P4 1_555 1_555
H49 C46 1_555 1_555
C47 P4 1_555 1_555
C48 C47 1_555 1_555
H50 C48 1_555 1_555
C49 C48 1_555 1_555
H51 C49 1_555 1_555
C50 C49 1_555 1_555
H52 C50 1_555 1_555
C51 C50 1_555 1_555
H53 C51 1_555 1_555
C52 C47 1_555 1_555
H54 C52 1_555 1_555
C53 P4 1_555 1_555
C54 C53 1_555 1_555
H55 C54 1_555 1_555
C55 C54 1_555 1_555
H56 C55 1_555 1_555
C56 C55 1_555 1_555
H57 C56 1_555 1_555
C57 C56 1_555 1_555
H58 C57 1_555 1_555
C58 C53 1_555 1_555
H59 C58 1_555 1_555
C59 S1 1_555 1_555
C60 C59 1_555 1_555
C61 C60 1_555 1_555
H60 C61 1_555 1_555
C62 C61 1_555 1_555
C63 C62 1_555 1_555
H61 C63 1_555 1_555
C64 C59 1_555 1_555
C65 C60 1_555 1_555
H62 C65 1_555 1_555
H63 C65 1_555 1_555
H64 C65 1_555 1_555
C66 C62 1_555 1_555
H65 C66 1_555 1_555
H66 C66 1_555 1_555
H67 C66 1_555 1_555
C67 C64 1_555 1_555
H68 C67 1_555 1_555
H69 C67 1_555 1_555
H70 C67 1_555 1_555
C68 S2 1_555 1_555
C69 C68 1_555 1_555
C70 C69 1_555 1_555
H71 C70 1_555 1_555
C71 C70 1_555 1_555
C72 C71 1_555 1_555
H72 C72 1_555 1_555
C73 C68 1_555 1_555
C74 C69 1_555 1_555
H73 C74 1_555 1_555
H74 C74 1_555 1_555
H75 C74 1_555 1_555
C75 C71 1_555 1_555
H76 C75 1_555 1_555
H77 C75 1_555 1_555
H78 C75 1_555 1_555
C76 C73 1_555 1_555
H79 C76 1_555 1_555
H80 C76 1_555 1_555
H81 C76 1_555 1_555
C77 S3 1_555 1_555
C78 C77 1_555 1_555
C79 C78 1_555 1_555
H82 C79 1_555 1_555
C80 C79 1_555 1_555
C81 C80 1_555 1_555
H83 C81 1_555 1_555
C82 C77 1_555 1_555
C83 C78 1_555 1_555
H84 C83 1_555 1_555
H85 C83 1_555 1_555
H86 C83 1_555 1_555
C84 C80 1_555 1_555
H87 C84 1_555 1_555
H88 C84 1_555 1_555
H89 C84 1_555 1_555
C85 C82 1_555 1_555
H90 C85 1_555 1_555
H91 C85 1_555 1_555
H92 C85 1_555 1_555
C86 H93 1_555 1_555
H94 C86 1_555 1_555
H95 C86 1_555 1_555
C87 C86 1_555 1_555
C88 C87 1_555 1_555
H96 C88 1_555 1_555
C89 C88 1_555 1_555
H97 C89 1_555 1_555
C90 C89 1_555 1_555
H98 C90 1_555 1_555
C91 C90 1_555 1_555
H99 C91 1_555 1_555
C92 C87 1_555 1_555
H100 C92 1_555 1_555
C93 C94 1_555 1_555
C94 H101 1_555 1_555
C95 C94 1_555 1_555
H102 C95 1_555 1_555
C96 C95 1_555 1_555
H103 C96 1_555 1_555
C97 C96 1_555 1_555
H104 C97 1_555 1_555
C98 C93 1_555 1_555
H105 C98 1_555 1_555
C99 C93 1_555 1_555
H106 C99 1_555 1_555
H107 C99 1_555 1_555
H108 C99 1_555 1_555
Ag2C P1 1_555 1_555
Ag3_2 P3 1_555 1_555
P1C Ag2 1_555 1_555
P3_2 Ag3 1_555 1_555
Ag3 S3 1_555 1_555
C5 C6 1_555 1_555
C11 C12 1_555 1_555
C22 C23 1_555 1_555
C28 C29 1_555 1_555
C34 C35 1_555 1_555
C40 C41 1_555 1_555
C45 C46 1_555 1_555
C51 C52 1_555 1_555
C57 C58 1_555 1_555
C63 C64 1_555 1_555
C72 C73 1_555 1_555
C81 C82 1_555 1_555
C91 C92 1_555 1_555
C97 C98 1_555 1_555

#END
