
#######################################################################
#
#                 Cambridge Crystallographic Data Centre
#                                CCDC 
#
#######################################################################
#
# If this CIF has been generated from an entry in the Cambridge 
# Structural Database, then it will include bibliographic, chemical, 
# crystal, experimental, refinement or atomic coordinate data resulting 
# from the CCDC's data processing and validation procedures.
#
#######################################################################

data_YONRIE
_symmetry_cell_setting           triclinic
_symmetry_space_group_name_H-M   'P -1'
_symmetry_Int_Tables_number      2
_space_group_name_Hall           '-P 1'
loop_
_symmetry_equiv_pos_site_id
_symmetry_equiv_pos_as_xyz
1 x,y,z
2 -x,-y,-z
_cell_length_a                   8.9736(18)
_cell_length_b                   9.7152(19)
_cell_length_c                   11.339(2)
_cell_angle_alpha                69.15(3)
_cell_angle_beta                 67.52(3)
_cell_angle_gamma                78.80(3)
_cell_volume                     851.669
loop_
_atom_site_label
_atom_site_type_symbol
_atom_site_fract_x
_atom_site_fract_y
_atom_site_fract_z
Cd1 Cd 0.32016(2) 0.397992(19) 0.163960(18)
N1 N 0.4049(2) 0.3010(2) 0.3401(2)
N2 N 0.5516(3) 0.2511(2) 0.4714(2)
H1 H 0.6269 0.2559 0.4988
N3 N 0.7857(3) 0.4578(2) 0.2743(2)
N4 N 1.0420(3) 0.4435(3) 0.2523(2)
O1 O 0.3171(3) 0.6339(2) 0.2066(2)
O2 O 0.3812(2) 0.6312(2) 0.0001(2)
O3 O 0.2752(2) 1.3104(2) 0.0261(2)
O4 O 0.2542(3) 1.1098(2) 0.1993(2)
C1 C 0.3532(3) 0.6996(3) 0.0831(3)
C2 C 0.3564(3) 0.8652(3) 0.0347(3)
H2 H 0.4128 0.8985 -0.0615
H3 H 0.4148 0.8943 0.0775
C3 C 0.1854(3) 0.9383(3) 0.0666(3)
H4 H 0.1264 0.9064 0.0260
H5 H 0.1303 0.9066 0.1630
C4 C 0.1845(4) 1.1059(3) 0.0155(3)
H6 H 0.2506 1.1352 -0.0789
H7 H 0.0748 1.1453 0.0216
C5 C 0.2439(3) 1.1779(3) 0.0867(3)
C6 C 0.3327(3) 0.1922(3) 0.4588(2)
C7 C 0.1931(3) 0.1195(3) 0.5009(3)
H8 H 0.1292 0.1417 0.4477
C8 C 0.1540(4) 0.0132(3) 0.6250(3)
H9 H 0.0610 -0.0367 0.6566
C9 C 0.2509(4) -0.0213(3) 0.7045(3)
H10 H 0.2218 -0.0952 0.7869
C10 C 0.3884(4) 0.0507(3) 0.6646(3)
H11 H 0.4524 0.0279 0.7178
C11 C 0.4256(3) 0.1590(3) 0.5407(2)
C12 C 0.5340(3) 0.3321(3) 0.3528(3)
C13 C 0.6431(3) 0.4478(3) 0.2466(3)
H12 H 0.6779 0.4272 0.1621
H13 H 0.5821 0.5428 0.2362
C14 C 0.9356(3) 0.4061(3) 0.2168(3)
H14 H 0.9617 0.3505 0.1588
C15 C 0.7973(4) 0.5347(4) 0.3495(4)
H15 H 0.7129 0.5843 0.4008
C16 C 0.9546(4) 0.5252(4) 0.3352(3)
H16 H 0.9973 0.5680 0.3759
Cd1_2 Cd 0.32016(2) 1.397992(19) 0.163960(18)
Cd1_3 Cd 1.32016(2) 0.397992(19) 0.163960(18)
Cd1A Cd 0.67984(2) 0.602008(19) -0.163960(18)
N4_2 N 0.0420(3) 0.4435(3) 0.2523(2)
O2A O 0.6188(2) 0.3688(2) -0.0001(2)
O3_2 O 0.2752(2) 0.3104(2) 0.0261(2)
O5 O 0.7484(3) 0.1968(3) 0.6193(2)
H17 H 0.7333 0.2538 0.6655
H18 H 0.7452 0.1073 0.6688
loop_
_geom_bond_atom_site_label_1
_geom_bond_atom_site_label_2
_geom_bond_site_symmetry_1
_geom_bond_site_symmetry_2
Cd1 N1 1_555 1_555
N1 C6 1_555 1_555
N2 H1 1_555 1_555
N3 C13 1_555 1_555
N4 C14 1_555 1_555
O1 Cd1 1_555 1_555
O2 Cd1 1_555 1_555
O3 C5 1_555 1_555
O4 C5 1_555 1_555
C1 O1 1_555 1_555
C2 C1 1_555 1_555
H2 C2 1_555 1_555
H3 C2 1_555 1_555
C3 C2 1_555 1_555
H4 C3 1_555 1_555
H5 C3 1_555 1_555
C4 C3 1_555 1_555
H6 C4 1_555 1_555
H7 C4 1_555 1_555
C5 C4 1_555 1_555
C6 C7 1_555 1_555
C7 H8 1_555 1_555
C8 C7 1_555 1_555
H9 C8 1_555 1_555
C9 C8 1_555 1_555
H10 C9 1_555 1_555
C10 C9 1_555 1_555
H11 C10 1_555 1_555
C11 N2 1_555 1_555
C12 N1 1_555 1_555
C13 C12 1_555 1_555
H12 C13 1_555 1_555
H13 C13 1_555 1_555
C14 N3 1_555 1_555
H14 C14 1_555 1_555
C15 N3 1_555 1_555
H15 C15 1_555 1_555
C16 N4 1_555 1_555
H16 C16 1_555 1_555
O5 H17 1_555 1_555
H18 O5 1_555 1_555
Cd1_2 O3 1_555 1_555
Cd1_3 N4 1_555 1_555
Cd1A O2 1_555 1_555
N4_2 Cd1 1_555 1_555
O2A Cd1 1_555 1_555
O3_2 Cd1 1_555 1_555
N2 C12 1_555 1_555
O2 C1 1_555 1_555
C6 C11 1_555 1_555
C10 C11 1_555 1_555
C15 C16 1_555 1_555
Cd1A O2A 1_555 1_555

#END
