
#######################################################################
#
#                 Cambridge Crystallographic Data Centre
#                                CCDC 
#
#######################################################################
#
# If this CIF has been generated from an entry in the Cambridge 
# Structural Database, then it will include bibliographic, chemical, 
# crystal, experimental, refinement or atomic coordinate data resulting 
# from the CCDC's data processing and validation procedures.
#
#######################################################################

data_YONROK
_symmetry_cell_setting           triclinic
_symmetry_space_group_name_H-M   'P -1'
_symmetry_Int_Tables_number      2
_space_group_name_Hall           '-P 1'
loop_
_symmetry_equiv_pos_site_id
_symmetry_equiv_pos_as_xyz
1 x,y,z
2 -x,-y,-z
_cell_length_a                   8.6158(17)
_cell_length_b                   8.7031(17)
_cell_length_c                   11.442(2)
_cell_angle_alpha                106.36(3)
_cell_angle_beta                 99.64(3)
_cell_angle_gamma                98.35(3)
_cell_volume                     794.644
loop_
_atom_site_label
_atom_site_type_symbol
_atom_site_fract_x
_atom_site_fract_y
_atom_site_fract_z
Cd1 Cd 0.67279(2) 1.53221(2) 0.645114(17)
Cl1 Cl 0.61362(9) 1.66322(9) 0.47273(7)
N1 N 0.9343(3) 1.6866(3) 0.7272(2)
N2 N 1.1943(3) 1.7676(3) 0.7517(2)
N3 N 1.4399(3) 1.7579(3) 0.9533(2)
H1 H 1.3628 1.7983 0.9808
N4 N 1.5929(3) 1.6670(3) 0.8216(2)
O1 O 0.7965(3) 1.3306(3) 0.54511(19)
O2 O 0.7443(3) 1.3083(3) 0.7215(2)
C1 C 1.0655(3) 1.6471(4) 0.6937(3)
H2 H 1.0686 1.5480 0.6368
C2 C 0.9809(4) 1.8417(4) 0.8095(3)
H3 H 0.9127 1.9022 0.8483
C3 C 1.1413(4) 1.8939(4) 0.8261(3)
H4 H 1.2031 1.9945 0.8773
C4 C 1.3581(4) 1.7669(4) 0.7347(3)
H5 H 1.4056 1.8736 0.7321
H6 H 1.3549 1.6874 0.6550
C5 C 1.4622(3) 1.7269(3) 0.8359(3)
C6 C 1.5634(3) 1.7133(3) 1.0217(3)
C7 C 1.5963(4) 1.7149(4) 1.1455(3)
H7 H 1.5295 1.7497 1.1992
C8 C 1.7328(4) 1.6623(4) 1.1839(3)
H8 H 1.7603 1.6627 1.2661
C9 C 1.8316(4) 1.6082(4) 1.1021(3)
H9 H 1.9233 1.5735 1.1315
C10 C 1.7973(4) 1.6047(4) 0.9799(3)
H10 H 1.8634 1.5677 0.9262
C11 C 1.6601(3) 1.6584(3) 0.9394(2)
C12 C 0.7991(3) 1.2568(4) 0.6253(3)
C13 C 0.8706(4) 1.1058(4) 0.6068(3)
H11 H 0.7852 1.0125 0.5929
H12 H 0.9462 1.1173 0.6833
C14 C 0.9560(4) 1.0696(4) 0.5004(3)
H13 H 1.0324 1.1670 0.5074
H14 H 0.8781 1.0412 0.4220
O1A O 1.2035(3) 0.6694(3) 0.45489(19)
O2A O 1.2557(3) 0.6917(3) 0.2785(2)
C12A C 1.2009(3) 0.7432(4) 0.3747(3)
C13A C 1.1294(4) 0.8942(4) 0.3932(3)
H11A H 1.2148 0.9875 0.4071
H12A H 1.0538 0.8827 0.3167
C14A C 1.0440(4) 0.9304(4) 0.4996(3)
H13A H 0.9676 0.8330 0.4926
H14A H 1.1219 0.9588 0.5780
Cd1A Cd 0.32721(2) 1.46779(2) 0.354886(17)
Cl1A Cl 0.38638(9) 1.33678(9) 0.52727(7)
N1A N 0.0657(3) 1.3134(3) 0.2728(2)
N2A N -0.1943(3) 1.2324(3) 0.2483(2)
N3A N -0.4399(3) 1.2421(3) 0.0467(2)
H1A H -0.3628 1.2017 0.0192
N4A N -0.5929(3) 1.3330(3) 0.1784(2)
C1A C -0.0655(3) 1.3529(4) 0.3063(3)
H2A H -0.0686 1.4520 0.3632
C2A C 0.0191(4) 1.1583(4) 0.1905(3)
H3A H 0.0873 1.0978 0.1517
C3A C -0.1413(4) 1.1061(4) 0.1739(3)
H4A H -0.2031 1.0055 0.1227
C4A C -0.3581(4) 1.2331(4) 0.2653(3)
H5A H -0.4056 1.1264 0.2679
H6A H -0.3549 1.3126 0.3450
C5A C -0.4622(3) 1.2731(3) 0.1641(3)
C6A C -0.5634(3) 1.2867(3) -0.0217(3)
C7A C -0.5963(4) 1.2851(4) -0.1455(3)
H7A H -0.5295 1.2503 -0.1992
C8A C -0.7328(4) 1.3377(4) -0.1839(3)
H8A H -0.7603 1.3373 -0.2661
C9A C -0.8316(4) 1.3918(4) -0.1021(3)
H9A H -0.9233 1.4265 -0.1315
C10A C -0.7973(4) 1.3953(4) 0.0201(3)
H10A H -0.8634 1.4323 0.0738
C11A C -0.6601(3) 1.3416(3) 0.0606(2)
Cd1_2 Cd 1.67279(2) 1.53221(2) 0.645114(17)
Cd1A_2 Cd -0.67279(2) 1.46779(2) 0.354886(17)
Cd1A_3 Cd 1.32721(2) 0.46779(2) 0.354886(17)
N4_2 N 0.5929(3) 1.6670(3) 0.8216(2)
N4A_2 N 0.4071(3) 1.3330(3) 0.1784(2)
O1A_2 O 0.2035(3) 1.6694(3) 0.45489(19)
O2A_2 O 0.2557(3) 1.6917(3) 0.2785(2)
O3 O 1.7839(4) 1.1635(4) 0.9047(3)
H15 H 1.7633 1.1182 0.8261
H16 H 1.8166 1.2620 0.9082
loop_
_geom_bond_atom_site_label_1
_geom_bond_atom_site_label_2
_geom_bond_site_symmetry_1
_geom_bond_site_symmetry_2
Cd1 Cl1 1_555 1_555
Cl1 Cd1A 1_555 1_555
N1 Cd1 1_555 1_555
N2 C1 1_555 1_555
N3 H1 1_555 1_555
N4 C5 1_555 1_555
O1 Cd1 1_555 1_555
O2 Cd1 1_555 1_555
C1 N1 1_555 1_555
H2 C1 1_555 1_555
C2 N1 1_555 1_555
H3 C2 1_555 1_555
C3 N2 1_555 1_555
H4 C3 1_555 1_555
C4 N2 1_555 1_555
H5 C4 1_555 1_555
H6 C4 1_555 1_555
C5 N3 1_555 1_555
C6 N3 1_555 1_555
C7 C6 1_555 1_555
H7 C7 1_555 1_555
C8 C7 1_555 1_555
H8 C8 1_555 1_555
C9 C8 1_555 1_555
H9 C9 1_555 1_555
C10 C9 1_555 1_555
H10 C10 1_555 1_555
C11 N4 1_555 1_555
C12 O1 1_555 1_555
C13 C12 1_555 1_555
H11 C13 1_555 1_555
H12 C13 1_555 1_555
C14 C13 1_555 1_555
H13 C14 1_555 1_555
H14 C14 1_555 1_555
O3 H15 1_555 1_555
H16 O3 1_555 1_555
O1A C12A 1_555 1_555
O2A C12A 1_555 1_555
C12A C13A 1_555 1_555
C13A H11A 1_555 1_555
H12A C13A 1_555 1_555
C14A C14 1_555 1_555
H13A C14A 1_555 1_555
H14A C14A 1_555 1_555
Cd1A Cl1A 1_555 1_555
Cl1A Cd1 1_555 1_555
N1A Cd1A 1_555 1_555
N2A C1A 1_555 1_555
N3A H1A 1_555 1_555
N4A C5A 1_555 1_555
C1A N1A 1_555 1_555
H2A C1A 1_555 1_555
C2A N1A 1_555 1_555
H3A C2A 1_555 1_555
C3A N2A 1_555 1_555
H4A C3A 1_555 1_555
C4A N2A 1_555 1_555
H5A C4A 1_555 1_555
H6A C4A 1_555 1_555
C5A N3A 1_555 1_555
C6A N3A 1_555 1_555
C7A C6A 1_555 1_555
H7A C7A 1_555 1_555
C8A C7A 1_555 1_555
H8A C8A 1_555 1_555
C9A C8A 1_555 1_555
H9A C9A 1_555 1_555
C10A C9A 1_555 1_555
H10A C10A 1_555 1_555
C11A N4A 1_555 1_555
Cd1_2 N4 1_555 1_555
Cd1A_2 N4A 1_555 1_555
Cd1A_3 O1A 1_555 1_555
N4_2 Cd1 1_555 1_555
N4A_2 Cd1A 1_555 1_555
O1A_2 Cd1A 1_555 1_555
O2A_2 Cd1A 1_555 1_555
O2 C12 1_555 1_555
C2 C3 1_555 1_555
C4 C5 1_555 1_555
C6 C11 1_555 1_555
C10 C11 1_555 1_555
O2A Cd1A_3 1_555 1_555
C13A C14A 1_555 1_555
C2A C3A 1_555 1_555
C4A C5A 1_555 1_555
C6A C11A 1_555 1_555
C10A C11A 1_555 1_555

#END
