
#######################################################################
#
#                 Cambridge Crystallographic Data Centre
#                                CCDC 
#
#######################################################################
#
# If this CIF has been generated from an entry in the Cambridge 
# Structural Database, then it will include bibliographic, chemical, 
# crystal, experimental, refinement or atomic coordinate data resulting 
# from the CCDC's data processing and validation procedures.
#
#######################################################################

data_YONVON
_symmetry_cell_setting           orthorhombic
_symmetry_space_group_name_H-M   'P 21 21 21'
_symmetry_Int_Tables_number      19
_space_group_name_Hall           'P 2ac 2ab'
loop_
_symmetry_equiv_pos_site_id
_symmetry_equiv_pos_as_xyz
1 x,y,z
2 1/2-x,-y,1/2+z
3 1/2+x,1/2-y,-z
4 -x,1/2+y,1/2-z
_cell_length_a                   9.0374(3)
_cell_length_b                   13.4163(4)
_cell_length_c                   15.7930(5)
_cell_angle_alpha                90
_cell_angle_beta                 90
_cell_angle_gamma                90
_cell_volume                     1914.88
loop_
_atom_site_label
_atom_site_type_symbol
_atom_site_fract_x
_atom_site_fract_y
_atom_site_fract_z
C1 C 0.2253(5) 0.4680(3) 0.4917(3)
H1 H 0.2476 0.4429 0.5478
H2 H 0.1220 0.4875 0.4913
C2 C 0.3178(4) 0.5594(3) 0.4765(2)
C3 C 0.3163(6) 0.6371(4) 0.5328(3)
H3 H 0.2636 0.6320 0.5832
C4 C 0.3931(7) 0.7222(4) 0.5143(4)
H4 H 0.3917 0.7759 0.5515
C5 C 0.4726(6) 0.7275(3) 0.4399(4)
H5 H 0.5219 0.7858 0.4248
C6 C 0.4774(5) 0.6452(3) 0.3887(3)
H6 H 0.5361 0.6468 0.3404
C7 C 0.6954(5) 0.3161(4) 0.2967(3)
H7 H 0.6539 0.2526 0.2793
H8 H 0.7973 0.3047 0.3134
C8 C 0.6922(4) 0.3865(3) 0.2234(3)
C9 C 0.8037(5) 0.3888(4) 0.1622(4)
H9 H 0.8845 0.3463 0.1664
C10 C 0.7930(6) 0.4540(5) 0.0963(4)
H10 H 0.8662 0.4558 0.0549
C11 C 0.6743(6) 0.5166(4) 0.0914(3)
H11 H 0.6649 0.5613 0.0467
C12 C 0.5693(4) 0.5121(3) 0.1537(2)
H12 H 0.4896 0.5558 0.1512
C13 C 0.0072(4) 0.1857(3) 0.3804(2)
C14 C -0.1194(4) 0.0538(2) 0.2749(2)
C15 C 0.1071(4) 0.0673(2) 0.1738(2)
C16 C 0.2142(4) 0.2141(2) 0.2671(2)
N1 N 0.2439(5) 0.3906(3) 0.4340(2)
H13 H 0.1539 0.3721 0.4154
H14 H 0.2828 0.3382 0.4618
N2 N 0.4006(3) 0.56294(19) 0.40589(17)
N3 N 0.6128(4) 0.3538(3) 0.3689(2)
H15 H 0.6657 0.4007 0.3961
H16 H 0.5935 0.3040 0.4054
N4 N 0.5766(3) 0.44755(19) 0.21808(17)
N5 N -0.0127(4) 0.2191(3) 0.4464(2)
N6 N -0.2265(4) 0.0096(2) 0.2685(2)
N7 N 0.1449(5) 0.0256(3) 0.1149(2)
N8 N 0.3101(4) 0.2701(2) 0.2621(2)
Ni1 Ni 0.05315(4) 0.12930(3) 0.27519(3)
Cd1 Cd 0.39014(2) 0.422355(16) 0.317745(14)
N6C N 0.2265(4) 0.5096(2) 0.2315(2)
Cd1C Cd -0.39014(2) -0.077645(16) 0.182255(14)
loop_
_geom_bond_atom_site_label_1
_geom_bond_atom_site_label_2
_geom_bond_site_symmetry_1
_geom_bond_site_symmetry_2
C1 H1 1_555 1_555
H2 C1 1_555 1_555
C2 C1 1_555 1_555
C3 C2 1_555 1_555
H3 C3 1_555 1_555
C4 C3 1_555 1_555
H4 C4 1_555 1_555
C5 C4 1_555 1_555
H5 C5 1_555 1_555
C6 C5 1_555 1_555
H6 C6 1_555 1_555
C7 H7 1_555 1_555
H8 C7 1_555 1_555
C8 C7 1_555 1_555
C9 C8 1_555 1_555
H9 C9 1_555 1_555
C10 C9 1_555 1_555
H10 C10 1_555 1_555
C11 C10 1_555 1_555
H11 C11 1_555 1_555
C12 C11 1_555 1_555
H12 C12 1_555 1_555
C13 N5 1_555 1_555
C14 N6 1_555 1_555
C15 N7 1_555 1_555
C16 N8 1_555 1_555
N1 C1 1_555 1_555
H13 N1 1_555 1_555
H14 N1 1_555 1_555
N2 C2 1_555 1_555
N3 C7 1_555 1_555
H15 N3 1_555 1_555
H16 N3 1_555 1_555
N4 C8 1_555 1_555
N6 Cd1C 1_555 1_555
N8 Cd1 1_555 1_555
Ni1 C13 1_555 1_555
Cd1 N1 1_555 1_555
N6C Cd1 1_555 1_555
C6 N2 1_555 1_555
C12 N4 1_555 1_555
C14 Ni1 1_555 1_555
C15 Ni1 1_555 1_555
C16 Ni1 1_555 1_555
N2 Cd1 1_555 1_555
N3 Cd1 1_555 1_555
N4 Cd1 1_555 1_555

#END
