
#######################################################################
#
#                 Cambridge Crystallographic Data Centre
#                                CCDC 
#
#######################################################################
#
# If this CIF has been generated from an entry in the Cambridge 
# Structural Database, then it will include bibliographic, chemical, 
# crystal, experimental, refinement or atomic coordinate data resulting 
# from the CCDC's data processing and validation procedures.
#
#######################################################################

data_YONZAC
_symmetry_cell_setting           triclinic
_symmetry_space_group_name_H-M   'P -1'
_symmetry_Int_Tables_number      2
_space_group_name_Hall           '-P 1'
loop_
_symmetry_equiv_pos_site_id
_symmetry_equiv_pos_as_xyz
1 x,y,z
2 -x,-y,-z
_cell_length_a                   12.2736(13)
_cell_length_b                   14.0642(12)
_cell_length_c                   15.6015(18)
_cell_angle_alpha                94.134(18)
_cell_angle_beta                 92.172(16)
_cell_angle_gamma                112.018(10)
_cell_volume                     2484.04
loop_
_atom_site_label
_atom_site_type_symbol
_atom_site_fract_x
_atom_site_fract_y
_atom_site_fract_z
Mn1 Mn 0.00000 0.00000 0.00000
Mn2 Mn -0.5000 0.00000 0.5000
Mn3 Mn -0.20277(5) 0.01134(4) 0.25742(4)
C1 C -0.0429(3) -0.1871(2) 0.1222(2)
C2 C 0.0305(3) -0.1796(2) 0.0539(2)
C3 C 0.0702(3) -0.2593(3) 0.0347(2)
C4 C 0.0364(4) -0.3450(3) 0.0802(3)
C5 C -0.0372(4) -0.3531(3) 0.1468(3)
C6 C -0.0761(3) -0.2753(3) 0.1669(2)
C7 C -0.0854(3) -0.1054(2) 0.1511(2)
O1 O -0.0577(2) -0.02284(17) 0.11204(14)
O2 O -0.1455(2) -0.11386(18) 0.21473(15)
O3 O 0.0665(2) -0.10008(17) 0.00565(14)
C8 C -0.4379(3) -0.1994(3) 0.4283(2)
C9 C -0.5368(3) -0.2155(3) 0.4769(2)
C10 C -0.6030(3) -0.3158(3) 0.4966(3)
C11 C -0.5737(4) -0.3972(3) 0.4687(3)
C12 C -0.4789(4) -0.3829(3) 0.4192(3)
C13 C -0.4128(4) -0.2856(3) 0.4000(2)
C14 C -0.3590(3) -0.0968(3) 0.4066(2)
O4 O -0.3750(2) -0.01558(17) 0.43628(14)
O5 O -0.2765(2) -0.08931(19) 0.36020(16)
O6 O -0.57331(19) -0.14151(17) 0.50562(14)
N1 N 0.1740(3) 0.1278(2) 0.05731(19)
C22 C 0.2767(4) 0.1335(4) 0.0286(3)
C23 C 0.3802(4) 0.2143(5) 0.0532(4)
C24 C 0.3782(5) 0.2945(4) 0.1084(4)
C25 C 0.2740(5) 0.2875(4) 0.1400(4)
C26 C 0.1749(4) 0.2039(3) 0.1123(3)
N2 N -0.6079(3) -0.0106(2) 0.37000(19)
C27 C -0.5882(4) 0.0707(3) 0.3258(3)
C28 C -0.6578(5) 0.0704(4) 0.2542(3)
C29 C -0.7520(5) -0.0184(5) 0.2266(3)
C30 C -0.7716(4) -0.1030(4) 0.2691(3)
C31 C -0.6977(4) -0.0967(4) 0.3405(3)
N3 N -0.0229(3) 0.0931(2) 0.3265(2)
C32 C 0.0283(5) 0.0442(4) 0.3736(3)
C33 C 0.1380(6) 0.0906(5) 0.4149(4)
C34 C 0.1985(5) 0.1931(6) 0.4080(4)
C35 C 0.1469(5) 0.2460(4) 0.3614(4)
C36 C 0.0373(4) 0.1924(4) 0.3224(3)
N4 N -0.3804(3) -0.0787(3) 0.1831(2)
C37 C -0.4429(4) -0.0327(4) 0.1440(3)
C38 C -0.5536(6) -0.0856(6) 0.1049(4)
C39 C -0.6020(5) -0.1900(7) 0.1059(5)
C40 C -0.5402(5) -0.2397(4) 0.1453(4)
C41 C -0.4297(4) -0.1815(4) 0.1828(3)
O10 O -0.2644(2) 0.1252(2) 0.31994(16)
O11 O -0.1598(2) 0.1214(2) 0.16010(16)
H1 H -0.281 0.181 0.296
H2 H -0.303 0.108 0.366
H3 H -0.301 0.100 0.299
H4 H -0.199 0.161 0.150
H5 H -0.130 0.112 0.114
H7 H 0.121 -0.254 -0.010
H8 H 0.064 -0.399 0.066
H9 H -0.060 -0.412 0.178
H10 H -0.127 -0.281 0.212
H11 H -0.669 -0.327 0.530
H12 H -0.619 -0.464 0.484
H13 H -0.460 -0.440 0.399
H14 H -0.347 -0.276 0.366
H19 H 0.278 0.079 -0.011
H20 H 0.452 0.215 0.033
H21 H 0.448 0.353 0.124
H22 H 0.270 0.340 0.181
H23 H 0.102 0.200 0.134
H24 H -0.523 0.132 0.345
H25 H -0.641 0.130 0.225
H26 H -0.803 -0.020 0.178
H27 H -0.835 -0.166 0.250
H28 H -0.712 -0.157 0.370
H29 H -0.014 -0.027 0.379
H30 H 0.171 0.053 0.448
H31 H 0.275 0.227 0.435
H32 H 0.186 0.318 0.356
H33 H 0.002 0.229 0.290
H34 H -0.410 0.040 0.143
H35 H -0.595 -0.050 0.078
H36 H -0.679 -0.228 0.079
H37 H -0.573 -0.312 0.147
H38 H -0.386 -0.216 0.210
C1A C 0.0429(3) 0.1871(2) -0.1222(2)
C2A C -0.0305(3) 0.1796(2) -0.0539(2)
C3A C -0.0702(3) 0.2593(3) -0.0347(2)
C4A C -0.0364(4) 0.3450(3) -0.0802(3)
C5A C 0.0372(4) 0.3531(3) -0.1468(3)
C6A C 0.0761(3) 0.2753(3) -0.1669(2)
C7A C 0.0854(3) 0.1054(2) -0.1511(2)
O1A O 0.0577(2) 0.02284(17) -0.11204(14)
O2A O 0.1455(2) 0.11386(18) -0.21473(15)
O3A O -0.0665(2) 0.10008(17) -0.00565(14)
H7A H -0.121 0.254 0.010
H8A H -0.064 0.399 -0.066
H9A H 0.060 0.412 -0.178
H10A H 0.127 0.281 -0.212
N1A N -0.1740(3) -0.1278(2) -0.05731(19)
C22A C -0.2767(4) -0.1335(4) -0.0286(3)
C23A C -0.3802(4) -0.2143(5) -0.0532(4)
C24A C -0.3782(5) -0.2945(4) -0.1084(4)
C25A C -0.2740(5) -0.2875(4) -0.1400(4)
C26A C -0.1749(4) -0.2039(3) -0.1123(3)
H19A H -0.278 -0.079 0.011
H20A H -0.452 -0.215 -0.033
H21A H -0.448 -0.353 -0.124
H22A H -0.270 -0.340 -0.181
H23A H -0.102 -0.200 -0.134
Mn3A Mn 0.20277(5) -0.01134(4) -0.25742(4)
C8A C 0.4379(3) 0.1994(3) -0.4283(2)
C9A C 0.5368(3) 0.2155(3) -0.4769(2)
C10A C 0.6030(3) 0.3158(3) -0.4966(3)
C11A C 0.5737(4) 0.3972(3) -0.4687(3)
C12A C 0.4789(4) 0.3829(3) -0.4192(3)
C13A C 0.4128(4) 0.2856(3) -0.4000(2)
C14A C 0.3590(3) 0.0968(3) -0.4066(2)
O4A O 0.3750(2) 0.01558(17) -0.43628(14)
O5A O 0.2765(2) 0.08931(19) -0.36020(16)
O6A O 0.57331(19) 0.14151(17) -0.50562(14)
H11A H 0.669 0.327 -0.530
H12A H 0.619 0.464 -0.484
H13A H 0.460 0.440 -0.399
H14A H 0.347 0.276 -0.366
N3A N 0.0229(3) -0.0931(2) -0.3265(2)
C32A C -0.0283(5) -0.0442(4) -0.3736(3)
C33A C -0.1380(6) -0.0906(5) -0.4149(4)
C34A C -0.1985(5) -0.1931(6) -0.4080(4)
C35A C -0.1469(5) -0.2460(4) -0.3614(4)
C36A C -0.0373(4) -0.1924(4) -0.3224(3)
H29A H 0.014 0.027 -0.379
H30A H -0.171 -0.053 -0.448
H31A H -0.275 -0.227 -0.435
H32A H -0.186 -0.318 -0.356
H33A H -0.002 -0.229 -0.290
N4A N 0.3804(3) 0.0787(3) -0.1831(2)
C37A C 0.4429(4) 0.0327(4) -0.1440(3)
C38A C 0.5536(6) 0.0856(6) -0.1049(4)
C39A C 0.6020(5) 0.1900(7) -0.1059(5)
C40A C 0.5402(5) 0.2397(4) -0.1453(4)
C41A C 0.4297(4) 0.1815(4) -0.1828(3)
H34A H 0.410 -0.040 -0.143
H35A H 0.595 0.050 -0.078
H36A H 0.679 0.228 -0.079
H37A H 0.573 0.312 -0.147
H38A H 0.386 0.216 -0.210
O10A O 0.2644(2) -0.1252(2) -0.31994(16)
H1A H 0.281 -0.181 -0.296
H2A H 0.303 -0.108 -0.366
H3A H 0.301 -0.100 -0.299
O11A O 0.1598(2) -0.1214(2) -0.16010(16)
H4A H 0.199 -0.161 -0.150
H5A H 0.130 -0.112 -0.114
N2A N -0.3921(3) 0.0106(2) 0.63000(19)
C27A C -0.4118(4) -0.0707(3) 0.6742(3)
C28A C -0.3422(5) -0.0704(4) 0.7458(3)
C29A C -0.2480(5) 0.0184(5) 0.7734(3)
C30A C -0.2284(4) 0.1030(4) 0.7309(3)
C31A C -0.3023(4) 0.0967(4) 0.6595(3)
H24A H -0.477 -0.132 0.655
H25A H -0.359 -0.130 0.775
H26A H -0.197 0.020 0.822
H27A H -0.165 0.166 0.750
H28A H -0.288 0.157 0.630
O4A_2 O -0.6250(2) 0.01558(17) 0.56372(14)
O6A_2 O -0.42669(19) 0.14151(17) 0.49438(14)
Mn2_2 Mn 0.5000 0.00000 -0.5000
C15 C -0.3142(3) 0.3959(3) 0.1603(2)
C16 C -0.3479(3) 0.4570(3) 0.2186(2)
C17 C -0.3757(4) 0.5380(3) 0.1909(3)
C18 C -0.3692(4) 0.5568(3) 0.1062(3)
C19 C -0.3356(4) 0.4973(3) 0.0481(3)
C20 C -0.3070(3) 0.4179(3) 0.0751(3)
C21 C -0.2884(3) 0.3055(3) 0.1869(3)
O7 O -0.2956(3) 0.2900(2) 0.2666(2)
O8 O -0.2632(3) 0.2509(2) 0.13180(19)
O9 O -0.3588(3) 0.4396(2) 0.30233(19)
H6 H -0.335 0.386 0.305
H15 H -0.399 0.580 0.231
H16 H -0.388 0.612 0.088
H17 H -0.332 0.511 -0.011
H18 H -0.282 0.378 0.035
N5 N 0.2340(4) 0.5325(3) 0.1777(3)
C42 C 0.1336(5) 0.4597(4) 0.1468(3)
C43 C 0.0370(5) 0.4197(4) 0.1916(5)
C44 C 0.0423(6) 0.4556(5) 0.2750(5)
C45 C 0.1442(7) 0.5311(6) 0.3100(4)
C46 C 0.2370(6) 0.5663(5) 0.2593(5)
H39 H 0.129 0.433 0.088
H40 H -0.033 0.368 0.165
H41 H -0.024 0.429 0.308
H42 H 0.151 0.559 0.368
H43 H 0.308 0.618 0.284
N6 N 0.0815(8) 0.7355(11) 0.4963(7)
C47 C 0.0159(12) 0.6316(10) 0.4976(7)
C48 C -0.0807(9) 0.5931(5) 0.4510(6)
C49 C -0.1212(6) 0.6486(6) 0.4045(5)
C50 C -0.0622(9) 0.7488(7) 0.4059(4)
C51 C 0.0359(9) 0.7935(6) 0.4501(7)
H44 H 0.042 0.590 0.532
H45 H -0.125 0.521 0.450
H46 H -0.193 0.617 0.370
H47 H -0.093 0.788 0.373
H48 H 0.077 0.866 0.451
loop_
_geom_bond_atom_site_label_1
_geom_bond_atom_site_label_2
_geom_bond_site_symmetry_1
_geom_bond_site_symmetry_2
Mn1 O1 1_555 1_555
Mn2 O4 1_555 1_555
Mn3 O2 1_555 1_555
C1 C2 1_555 1_555
C2 C3 1_555 1_555
C3 C4 1_555 1_555
C4 C5 1_555 1_555
C5 C6 1_555 1_555
C6 C1 1_555 1_555
C7 C1 1_555 1_555
O1 C7 1_555 1_555
O2 C7 1_555 1_555
O3 Mn1 1_555 1_555
C8 C9 1_555 1_555
C9 C10 1_555 1_555
C10 C11 1_555 1_555
C11 C12 1_555 1_555
C12 C13 1_555 1_555
C13 C8 1_555 1_555
C14 C8 1_555 1_555
O4 C14 1_555 1_555
O5 Mn3 1_555 1_555
O6 Mn2 1_555 1_555
C15 C16 1_555 1_555
C16 C17 1_555 1_555
C17 C18 1_555 1_555
C18 C19 1_555 1_555
C19 C20 1_555 1_555
C20 C15 1_555 1_555
C21 C15 1_555 1_555
O7 C21 1_555 1_555
O8 C21 1_555 1_555
O9 C16 1_555 1_555
N1 Mn1 1_555 1_555
C22 N1 1_555 1_555
C23 C22 1_555 1_555
C24 C23 1_555 1_555
C25 C24 1_555 1_555
C26 N1 1_555 1_555
N2 Mn2 1_555 1_555
C27 N2 1_555 1_555
C28 C27 1_555 1_555
C29 C28 1_555 1_555
C30 C29 1_555 1_555
C31 N2 1_555 1_555
N3 Mn3 1_555 1_555
C32 N3 1_555 1_555
C33 C32 1_555 1_555
C34 C33 1_555 1_555
C35 C34 1_555 1_555
C36 N3 1_555 1_555
N4 Mn3 1_555 1_555
C37 N4 1_555 1_555
C38 C37 1_555 1_555
C39 C38 1_555 1_555
C40 C39 1_555 1_555
C41 N4 1_555 1_555
N5 C42 1_555 1_555
C42 C43 1_555 1_555
C43 C44 1_555 1_555
C44 C45 1_555 1_555
C45 C46 1_555 1_555
C46 N5 1_555 1_555
N6 C47 1_555 1_555
C47 C48 1_555 1_555
C48 C49 1_555 1_555
C49 C50 1_555 1_555
C50 C51 1_555 1_555
C51 N6 1_555 1_555
O10 Mn3 1_555 1_555
O11 Mn3 1_555 1_555
H1 O10 1_555 1_555
H2 O10 1_555 1_555
H3 O10 1_555 1_555
H4 O11 1_555 1_555
H5 O11 1_555 1_555
H6 O9 1_555 1_555
H7 C3 1_555 1_555
H8 C4 1_555 1_555
H9 C5 1_555 1_555
H10 C6 1_555 1_555
H11 C10 1_555 1_555
H12 C11 1_555 1_555
H13 C12 1_555 1_555
H14 C13 1_555 1_555
H15 C17 1_555 1_555
H16 C18 1_555 1_555
H17 C19 1_555 1_555
H18 C20 1_555 1_555
H19 C22 1_555 1_555
H20 C23 1_555 1_555
H21 C24 1_555 1_555
H22 C25 1_555 1_555
H23 C26 1_555 1_555
H24 C27 1_555 1_555
H25 C28 1_555 1_555
H26 C29 1_555 1_555
H27 C30 1_555 1_555
H28 C31 1_555 1_555
H29 C32 1_555 1_555
H30 C33 1_555 1_555
H31 C34 1_555 1_555
H32 C35 1_555 1_555
H33 C36 1_555 1_555
H34 C37 1_555 1_555
H35 C38 1_555 1_555
H36 C39 1_555 1_555
H37 C40 1_555 1_555
H38 C41 1_555 1_555
H39 C42 1_555 1_555
H40 C43 1_555 1_555
H41 C44 1_555 1_555
H42 C45 1_555 1_555
H43 C46 1_555 1_555
H44 C47 1_555 1_555
H45 C48 1_555 1_555
H46 C49 1_555 1_555
H47 C50 1_555 1_555
H48 C51 1_555 1_555
C1A C2A 1_555 1_555
C2A C3A 1_555 1_555
C3A C4A 1_555 1_555
C4A C5A 1_555 1_555
C5A C6A 1_555 1_555
C6A C1A 1_555 1_555
C7A C1A 1_555 1_555
O1A Mn1 1_555 1_555
O2A C7A 1_555 1_555
O3A Mn1 1_555 1_555
H7A C3A 1_555 1_555
H8A C4A 1_555 1_555
H9A C5A 1_555 1_555
H10A C6A 1_555 1_555
N1A Mn1 1_555 1_555
C22A N1A 1_555 1_555
C23A C22A 1_555 1_555
C24A C23A 1_555 1_555
C25A C24A 1_555 1_555
C26A N1A 1_555 1_555
H19A C22A 1_555 1_555
H20A C23A 1_555 1_555
H21A C24A 1_555 1_555
H22A C25A 1_555 1_555
H23A C26A 1_555 1_555
Mn3A O2A 1_555 1_555
C8A C9A 1_555 1_555
C9A C10A 1_555 1_555
C10A C11A 1_555 1_555
C11A C12A 1_555 1_555
C12A C13A 1_555 1_555
C13A C8A 1_555 1_555
C14A C8A 1_555 1_555
O4A C14A 1_555 1_555
O5A Mn3A 1_555 1_555
O6A C9A 1_555 1_555
H11A C10A 1_555 1_555
H12A C11A 1_555 1_555
H13A C12A 1_555 1_555
H14A C13A 1_555 1_555
N3A Mn3A 1_555 1_555
C32A N3A 1_555 1_555
C33A C32A 1_555 1_555
C34A C33A 1_555 1_555
C35A C34A 1_555 1_555
C36A N3A 1_555 1_555
H29A C32A 1_555 1_555
H30A C33A 1_555 1_555
H31A C34A 1_555 1_555
H32A C35A 1_555 1_555
H33A C36A 1_555 1_555
N4A Mn3A 1_555 1_555
C37A N4A 1_555 1_555
C38A C37A 1_555 1_555
C39A C38A 1_555 1_555
C40A C39A 1_555 1_555
C41A N4A 1_555 1_555
H34A C37A 1_555 1_555
H35A C38A 1_555 1_555
H36A C39A 1_555 1_555
H37A C40A 1_555 1_555
H38A C41A 1_555 1_555
O10A Mn3A 1_555 1_555
H1A O10A 1_555 1_555
H2A O10A 1_555 1_555
H3A O10A 1_555 1_555
O11A Mn3A 1_555 1_555
H4A O11A 1_555 1_555
H5A O11A 1_555 1_555
N2A Mn2 1_555 1_555
C27A N2A 1_555 1_555
C28A C27A 1_555 1_555
C29A C28A 1_555 1_555
C30A C29A 1_555 1_555
C31A N2A 1_555 1_555
H24A C27A 1_555 1_555
H25A C28A 1_555 1_555
H26A C29A 1_555 1_555
H27A C30A 1_555 1_555
H28A C31A 1_555 1_555
O4A_2 Mn2 1_555 1_555
O6A_2 Mn2 1_555 1_555
Mn2_2 O4A 1_555 1_555
C2 O3 1_555 1_555
C9 O6 1_555 1_555
C14 O5 1_555 1_555
C25 C26 1_555 1_555
C30 C31 1_555 1_555
C35 C36 1_555 1_555
C40 C41 1_555 1_555
C2A O3A 1_555 1_555
C7A O1A 1_555 1_555
C25A C26A 1_555 1_555
C14A O5A 1_555 1_555
O6A Mn2_2 1_555 1_555
C35A C36A 1_555 1_555
C40A C41A 1_555 1_555
C30A C31A 1_555 1_555

#END
