
#######################################################################
#
#                 Cambridge Crystallographic Data Centre
#                                CCDC 
#
#######################################################################
#
# If this CIF has been generated from an entry in the Cambridge 
# Structural Database, then it will include bibliographic, chemical, 
# crystal, experimental, refinement or atomic coordinate data resulting 
# from the CCDC's data processing and validation procedures.
#
#######################################################################

data_YOPDUE
_symmetry_cell_setting           monoclinic
_symmetry_space_group_name_H-M   'P 21/c'
_symmetry_Int_Tables_number      14
_space_group_name_Hall           '-P 2ybc'
loop_
_symmetry_equiv_pos_site_id
_symmetry_equiv_pos_as_xyz
1 x,y,z
2 -x,1/2+y,1/2-z
3 -x,-y,-z
4 x,1/2-y,1/2+z
_cell_length_a                   7.7450(7)
_cell_length_b                   17.3706(15)
_cell_length_c                   13.3737(12)
_cell_angle_alpha                90
_cell_angle_beta                 93.227(6)
_cell_angle_gamma                90
_cell_volume                     1796.38
loop_
_atom_site_label
_atom_site_type_symbol
_atom_site_fract_x
_atom_site_fract_y
_atom_site_fract_z
Cu1 Cu 0.74048(4) 0.313721(17) 0.35615(2)
O1 O 0.7042(2) 0.21259(10) 0.40790(13)
N1 N 0.7794(2) 0.41434(11) 0.28767(15)
N2 N 0.8100(2) 0.27340(11) 0.22742(14)
N3 N 0.9782(3) 0.34516(13) 0.45820(16)
N4 N 1.5494(3) 0.35609(12) 0.43652(16)
N5 N 1.2665(3) 0.40355(14) 0.4797(2)
C1 C 0.7525(3) 0.48385(16) 0.3270(2)
H1 H 0.7074 0.4866 0.3899
C2 C 0.7883(4) 0.55138(16) 0.2788(2)
H2 H 0.7681 0.5988 0.3083
C3 C 0.8546(4) 0.54692(16) 0.1863(2)
H3 H 0.8797 0.5916 0.1516
C4 C 0.8836(3) 0.47618(17) 0.1452(2)
H4 H 0.9293 0.4727 0.0826
C5 C 0.8449(3) 0.41002(14) 0.19685(18)
C6 C 0.8743(3) 0.33009(13) 0.15628(18)
H5 H 0.8056 0.3249 0.0929
C7 C 1.0632(3) 0.31587(13) 0.13572(18)
C8 C 1.1152(3) 0.32267(14) 0.0393(2)
H6 H 1.0360 0.3370 -0.0122
C9 C 1.2864(3) 0.30812(15) 0.0191(2)
H7 H 1.3214 0.3129 -0.0460
C10 C 1.4027(3) 0.28691(15) 0.0940(2)
H8 H 1.5173 0.2776 0.0803
C11 C 1.3504(3) 0.27935(16) 0.1901(2)
H9 H 1.4296 0.2641 0.2411
C12 C 1.1814(3) 0.29414(15) 0.2113(2)
H10 H 1.1473 0.2895 0.2766
C13 C 0.7929(3) 0.20306(15) 0.1972(2)
H11 H 0.8203 0.1925 0.1317
C14 C 0.7359(3) 0.14029(14) 0.25541(18)
C15 C 0.7237(3) 0.06781(16) 0.2089(2)
H12 H 0.7484 0.0635 0.1418
C16 C 0.6762(4) 0.00327(17) 0.2598(2)
H13 H 0.6691 -0.0444 0.2281
C17 C 0.6390(3) 0.01098(16) 0.3598(2)
H14 H 0.6067 -0.0323 0.3953
C18 C 0.6488(3) 0.08027(14) 0.4069(2)
H15 H 0.6232 0.0831 0.4739
C19 C 0.6963(3) 0.14786(15) 0.35772(19)
C20 C 1.1170(4) 0.36920(15) 0.46568(19)
C21 C 1.4123(3) 0.37433(14) 0.45477(18)
Cu1_2 Cu 1.74048(4) 0.313721(17) 0.35615(2)
N4_2 N 0.5494(3) 0.35609(12) 0.43652(16)
loop_
_geom_bond_atom_site_label_1
_geom_bond_atom_site_label_2
_geom_bond_site_symmetry_1
_geom_bond_site_symmetry_2
Cu1 O1 1_555 1_555
O1 C19 1_555 1_555
N1 Cu1 1_555 1_555
N2 Cu1 1_555 1_555
N3 Cu1 1_555 1_555
N4 C21 1_555 1_555
N5 C20 1_555 1_555
C1 N1 1_555 1_555
H1 C1 1_555 1_555
C2 C1 1_555 1_555
H2 C2 1_555 1_555
C3 C2 1_555 1_555
H3 C3 1_555 1_555
C4 C3 1_555 1_555
H4 C4 1_555 1_555
C5 N1 1_555 1_555
C6 N2 1_555 1_555
H5 C6 1_555 1_555
C7 C6 1_555 1_555
C8 C7 1_555 1_555
H6 C8 1_555 1_555
C9 C8 1_555 1_555
H7 C9 1_555 1_555
C10 C9 1_555 1_555
H8 C10 1_555 1_555
C11 C10 1_555 1_555
H9 C11 1_555 1_555
C12 C7 1_555 1_555
H10 C12 1_555 1_555
C13 N2 1_555 1_555
H11 C13 1_555 1_555
C14 C13 1_555 1_555
C15 C14 1_555 1_555
H12 C15 1_555 1_555
C16 C15 1_555 1_555
H13 C16 1_555 1_555
C17 C16 1_555 1_555
H14 C17 1_555 1_555
C18 C17 1_555 1_555
H15 C18 1_555 1_555
C19 C14 1_555 1_555
C20 N3 1_555 1_555
C21 N5 1_555 1_555
Cu1_2 N4 1_555 1_555
N4_2 Cu1 1_555 1_555
C4 C5 1_555 1_555
C5 C6 1_555 1_555
C11 C12 1_555 1_555
C18 C19 1_555 1_555

#END
