
#######################################################################
#
#                 Cambridge Crystallographic Data Centre
#                                CCDC 
#
#######################################################################
#
# If this CIF has been generated from an entry in the Cambridge 
# Structural Database, then it will include bibliographic, chemical, 
# crystal, experimental, refinement or atomic coordinate data resulting 
# from the CCDC's data processing and validation procedures.
#
#######################################################################

data_YOPFAM
_symmetry_cell_setting           monoclinic
_symmetry_space_group_name_H-M   'P 21/c'
_symmetry_Int_Tables_number      14
_space_group_name_Hall           '-P 2ybc'
loop_
_symmetry_equiv_pos_site_id
_symmetry_equiv_pos_as_xyz
1 x,y,z
2 -x,1/2+y,1/2-z
3 -x,-y,-z
4 x,1/2-y,1/2+z
_cell_length_a                   7.7297(3)
_cell_length_b                   17.4321(6)
_cell_length_c                   13.6573(5)
_cell_angle_alpha                90
_cell_angle_beta                 91.799(2)
_cell_angle_gamma                90
_cell_volume                     1839.34
loop_
_atom_site_label
_atom_site_type_symbol
_atom_site_fract_x
_atom_site_fract_y
_atom_site_fract_z
Zn1 Zn 0.77186(3) 0.184745(14) 0.371994(18)
O1 O 0.7281(2) 0.29137(9) 0.41453(12)
N1 N 0.7956(2) 0.08087(11) 0.28806(14)
N2 N 0.8231(2) 0.22486(10) 0.23350(12)
N3 N 0.5552(3) 0.14329(12) 0.43715(15)
N4 N -0.0158(3) 0.15560(12) 0.45725(15)
N5 N 0.2704(3) 0.10008(14) 0.48483(19)
C1 C 0.7687(4) 0.01037(14) 0.3232(2)
H1 H 0.7284 0.0056 0.3864
C2 C 0.7978(4) -0.05504(15) 0.2707(2)
H2 H 0.7759 -0.1032 0.2969
C3 C 0.8596(4) -0.04729(16) 0.1791(2)
H3 H 0.8818 -0.0906 0.1418
C4 C 0.8892(3) 0.02423(15) 0.14176(19)
H4 H 0.9315 0.0298 0.0792
C5 C 0.8555(3) 0.08830(13) 0.19830(16)
C6 C 0.8854(3) 0.16917(13) 0.16146(16)
H5 H 0.8169 0.1759 0.1005
C7 C 1.0751(3) 0.18334(12) 0.13941(16)
C8 C 1.1948(3) 0.20209(15) 0.21262(18)
H6 H 1.1603 0.2054 0.2771
C9 C 1.3656(3) 0.21602(16) 0.1910(2)
H7 H 1.4454 0.2291 0.2407
C10 C 1.4171(3) 0.21046(14) 0.0955(2)
H8 H 1.5320 0.2196 0.0807
C11 C 1.2999(3) 0.19163(14) 0.02248(19)
H9 H 1.3351 0.1876 -0.0418
C12 C 1.1284(3) 0.17848(14) 0.04435(17)
H10 H 1.0487 0.1663 -0.0057
C13 C 0.7971(3) 0.29396(13) 0.20310(17)
H11 H 0.8172 0.3034 0.1374
C14 C 0.7405(3) 0.35767(13) 0.25992(17)
C15 C 0.7189(4) 0.42805(14) 0.2106(2)
H12 H 0.7393 0.4303 0.1439
C16 C 0.6687(4) 0.49320(15) 0.2575(2)
H13 H 0.6554 0.5391 0.2235
C17 C 0.6380(4) 0.48947(15) 0.3572(2)
H14 H 0.6042 0.5335 0.3900
C18 C 0.6569(3) 0.42209(14) 0.4077(2)
H15 H 0.6346 0.4214 0.4742
C19 C 0.7092(3) 0.35356(13) 0.36215(17)
C20 C 0.4178(3) 0.12661(14) 0.45750(17)
C21 C 0.1225(3) 0.13246(13) 0.46745(17)
Zn1_2 Zn -0.22814(3) 0.184745(14) 0.371994(18)
N4_2 N 0.9842(3) 0.15560(12) 0.45725(15)
loop_
_geom_bond_atom_site_label_1
_geom_bond_atom_site_label_2
_geom_bond_site_symmetry_1
_geom_bond_site_symmetry_2
Zn1 O1 1_555 1_555
O1 C19 1_555 1_555
N1 Zn1 1_555 1_555
N2 Zn1 1_555 1_555
N3 Zn1 1_555 1_555
N4 C21 1_555 1_555
N5 C20 1_555 1_555
C1 N1 1_555 1_555
H1 C1 1_555 1_555
C2 C1 1_555 1_555
H2 C2 1_555 1_555
C3 C2 1_555 1_555
H3 C3 1_555 1_555
C4 C3 1_555 1_555
H4 C4 1_555 1_555
C5 N1 1_555 1_555
C6 N2 1_555 1_555
H5 C6 1_555 1_555
C7 C6 1_555 1_555
C8 C7 1_555 1_555
H6 C8 1_555 1_555
C9 C8 1_555 1_555
H7 C9 1_555 1_555
C10 C9 1_555 1_555
H8 C10 1_555 1_555
C11 C10 1_555 1_555
H9 C11 1_555 1_555
C12 C7 1_555 1_555
H10 C12 1_555 1_555
C13 N2 1_555 1_555
H11 C13 1_555 1_555
C14 C13 1_555 1_555
C15 C14 1_555 1_555
H12 C15 1_555 1_555
C16 C15 1_555 1_555
H13 C16 1_555 1_555
C17 C16 1_555 1_555
H14 C17 1_555 1_555
C18 C17 1_555 1_555
H15 C18 1_555 1_555
C19 C14 1_555 1_555
C20 N3 1_555 1_555
C21 N5 1_555 1_555
Zn1_2 N4 1_555 1_555
N4_2 Zn1 1_555 1_555
C4 C5 1_555 1_555
C5 C6 1_555 1_555
C11 C12 1_555 1_555
C18 C19 1_555 1_555

#END
