
#######################################################################
#
#                 Cambridge Crystallographic Data Centre
#                                CCDC 
#
#######################################################################
#
# If this CIF has been generated from an entry in the Cambridge 
# Structural Database, then it will include bibliographic, chemical, 
# crystal, experimental, refinement or atomic coordinate data resulting 
# from the CCDC's data processing and validation procedures.
#
#######################################################################

data_YOPLIZ
_symmetry_cell_setting           monoclinic
_symmetry_space_group_name_H-M   'P 21/n'
_symmetry_Int_Tables_number      14
_space_group_name_Hall           '-P 2yn'
loop_
_symmetry_equiv_pos_site_id
_symmetry_equiv_pos_as_xyz
1 x,y,z
2 1/2-x,1/2+y,1/2-z
3 -x,-y,-z
4 1/2+x,1/2-y,1/2+z
_cell_length_a                   7.8407(7)
_cell_length_b                   32.422(3)
_cell_length_c                   10.3554(9)
_cell_angle_alpha                90
_cell_angle_beta                 106.372(2)
_cell_angle_gamma                90
_cell_volume                     2525.72
loop_
_atom_site_label
_atom_site_type_symbol
_atom_site_fract_x
_atom_site_fract_y
_atom_site_fract_z
Cu1 Cu -0.16781(7) 0.036330(14) 0.36296(5)
Cu2 Cu -0.18857(7) 0.030480(14) 0.64186(4)
Cu3 Cu -0.11931(7) 0.092750(15) 0.04757(5)
O1 O -0.2178(4) -0.00304(8) 0.4866(3)
O2 O -0.1647(4) -0.00558(9) 0.2364(3)
O3 O -0.2573(4) -0.06230(10) 0.1226(3)
O4 O -0.2913(4) -0.00874(9) 0.7324(3)
O5 O -0.5228(4) -0.04824(10) 0.7237(3)
O6 O -0.1136(4) 0.06827(8) 0.5258(2)
O7 O -0.0975(4) 0.07971(8) 0.2642(3)
O8 O 0.0330(5) 0.13627(10) 0.2312(3)
O9 O -0.1530(4) 0.06887(9) 0.7811(3)
O10 O -0.0531(4) 0.12394(9) 0.8998(3)
O11 O 0.0872(5) 0.05838(13) 0.0644(3)
H1 H 0.138(6) 0.0580(17) 0.002(4)
H2 H 0.138(6) 0.0422(12) 0.127(3)
O12 O -0.2968(5) 0.04100(10) -0.0033(3)
H3 H -0.283(8) 0.0221(9) 0.055(3)
H4 H -0.307(7) 0.0308(11) -0.0799(18)
N1 N -0.3207(5) 0.13163(11) 0.0335(3)
C1 C -0.3100(5) -0.03813(11) 0.4553(4)
C2 C -0.3957(5) -0.05628(12) 0.5441(4)
C3 C -0.4796(6) -0.09421(13) 0.5105(5)
H5 H -0.5339 -0.1065 0.5698
C4 C -0.4844(6) -0.11383(13) 0.3926(5)
H6 H -0.5388 -0.1395 0.3734
C5 C -0.4083(6) -0.09543(12) 0.3027(4)
H7 H -0.4151 -0.1086 0.2216
C6 C -0.3218(5) -0.05781(12) 0.3300(4)
C7 C -0.4063(5) -0.03654(12) 0.6732(4)
C8 C -0.2448(5) -0.04100(12) 0.2236(4)
C9 C -0.0552(5) 0.10696(11) 0.5493(4)
C10 C -0.0377(5) 0.12559(11) 0.6752(3)
C11 C 0.0280(7) 0.16543(13) 0.6981(4)
H8 H 0.0398 0.1776 0.7815
C12 C 0.0762(7) 0.18743(14) 0.6005(5)
H9 H 0.1199 0.2142 0.6175
C13 C 0.0591(6) 0.16936(13) 0.4771(4)
H10 H 0.0923 0.1842 0.4112
C14 C -0.0065(5) 0.12950(12) 0.4485(4)
C15 C -0.0207(5) 0.11453(12) 0.3089(4)
C16 C -0.0846(5) 0.10454(12) 0.7901(4)
C17 C -0.4684(6) 0.12159(13) 0.0668(4)
H11 H -0.4796 0.0949 0.0960
C18 C -0.6047(6) 0.14916(14) 0.0599(5)
H12 H -0.7047 0.1410 0.0847
C19 C -0.5923(6) 0.18938(13) 0.0155(4)
C20 C -0.4376(7) 0.19913(14) -0.0184(5)
H13 H -0.4226 0.2256 -0.0482
C21 C -0.3079(7) 0.17035(14) -0.0084(5)
H14 H -0.2060 0.1779 -0.0317
C22 C -0.7343(6) 0.22060(14) 0.0057(5)
C23 C -0.8408(8) 0.21960(18) 0.0927(6)
H15 H -0.8254 0.1990 0.1573
C24 C -0.9688(8) 0.2493(2) 0.0825(8)
H16 H -1.0376 0.2489 0.1424
C25 C -0.9974(9) 0.2793(2) -0.0134(9)
H17 H -1.0849 0.2991 -0.0187
C26 C -0.8962(9) 0.28019(18) -0.1024(7)
H18 H -0.9170 0.3001 -0.1697
C27 C -0.7639(7) 0.25135(16) -0.0913(6)
H19 H -0.6931 0.2525 -0.1498
Cu1B Cu -0.83219(7) -0.036330(14) 0.63704(5)
Cu3_2 Cu -0.11931(7) 0.092750(15) 1.04757(5)
O5B O -0.4772(4) 0.04824(10) 0.2763(3)
O10_2 O -0.0531(4) 0.12394(9) -0.1002(3)
loop_
_geom_bond_atom_site_label_1
_geom_bond_atom_site_label_2
_geom_bond_site_symmetry_1
_geom_bond_site_symmetry_2
Cu1 O1 1_555 1_555
Cu2 O1 1_555 1_555
Cu3 O7 1_555 1_555
O1 C1 1_555 1_555
O2 Cu1 1_555 1_555
O3 C8 1_555 1_555
O4 Cu2 1_555 1_555
O5 C7 1_555 1_555
O6 Cu1 1_555 1_555
O7 Cu1 1_555 1_555
O8 Cu3 1_555 1_555
O9 Cu2 1_555 1_555
O10 C16 1_555 1_555
O11 Cu3 1_555 1_555
H1 O11 1_555 1_555
H2 O11 1_555 1_555
O12 Cu3 1_555 1_555
H3 O12 1_555 1_555
H4 O12 1_555 1_555
N1 Cu3 1_555 1_555
C1 C2 1_555 1_555
C2 C3 1_555 1_555
C3 H5 1_555 1_555
C4 C3 1_555 1_555
H6 C4 1_555 1_555
C5 C4 1_555 1_555
H7 C5 1_555 1_555
C6 C1 1_555 1_555
C7 O4 1_555 1_555
C8 O2 1_555 1_555
C9 O6 1_555 1_555
C10 C9 1_555 1_555
C11 C10 1_555 1_555
H8 C11 1_555 1_555
C12 C11 1_555 1_555
H9 C12 1_555 1_555
C13 C12 1_555 1_555
H10 C13 1_555 1_555
C14 C9 1_555 1_555
C15 O7 1_555 1_555
C16 O9 1_555 1_555
C17 N1 1_555 1_555
H11 C17 1_555 1_555
C18 C17 1_555 1_555
H12 C18 1_555 1_555
C19 C18 1_555 1_555
C20 C19 1_555 1_555
H13 C20 1_555 1_555
C21 N1 1_555 1_555
H14 C21 1_555 1_555
C22 C19 1_555 1_555
C23 C22 1_555 1_555
H15 C23 1_555 1_555
C24 C23 1_555 1_555
H16 C24 1_555 1_555
C25 C24 1_555 1_555
H17 C25 1_555 1_555
C26 C25 1_555 1_555
H18 C26 1_555 1_555
C27 C22 1_555 1_555
H19 C27 1_555 1_555
Cu1B O5 1_555 1_555
Cu3_2 O10 1_555 1_555
O5B Cu1 1_555 1_555
O10_2 Cu3 1_555 1_555
Cu2 O6 1_555 1_555
O8 C15 1_555 1_555
C2 C7 1_555 1_555
C5 C6 1_555 1_555
C6 C8 1_555 1_555
C10 C16 1_555 1_555
C13 C14 1_555 1_555
C14 C15 1_555 1_555
C20 C21 1_555 1_555
C26 C27 1_555 1_555

#END
