
#######################################################################
#
#                 Cambridge Crystallographic Data Centre
#                                CCDC 
#
#######################################################################
#
# If this CIF has been generated from an entry in the Cambridge 
# Structural Database, then it will include bibliographic, chemical, 
# crystal, experimental, refinement or atomic coordinate data resulting 
# from the CCDC's data processing and validation procedures.
#
#######################################################################

data_YOPPAW
_symmetry_cell_setting           triclinic
_symmetry_space_group_name_H-M   'P -1'
_symmetry_Int_Tables_number      2
_space_group_name_Hall           '-P 1'
loop_
_symmetry_equiv_pos_site_id
_symmetry_equiv_pos_as_xyz
1 x,y,z
2 -x,-y,-z
_cell_length_a                   10.100(4)
_cell_length_b                   13.978(6)
_cell_length_c                   14.481(6)
_cell_angle_alpha                63.119(5)
_cell_angle_beta                 71.811(6)
_cell_angle_gamma                79.588(5)
_cell_volume                     1730.49
loop_
_atom_site_label
_atom_site_type_symbol
_atom_site_fract_x
_atom_site_fract_y
_atom_site_fract_z
Cd1 Cd 0.19568(8) 1.03405(6) 0.39392(6)
Cd2 Cd 0.76810(8) 0.92863(7) 0.02594(6)
O1 O 0.4337(9) 1.0358(7) 0.3457(8)
O2 O 0.9180(8) 0.8852(6) 0.1387(6)
H1 H 0.9907 0.9212 0.1030
H2 H 0.8758 0.9007 0.1913
O3 O 0.3805(9) 1.1561(7) 0.1957(7)
O4 O 0.6332(9) 0.9585(8) -0.0892(7)
H3 H 0.5921 0.9015 -0.0682
H4 H 0.5730 1.0093 -0.0881
O5 O 0.8899(9) 1.0433(6) 0.4209(7)
O6 O 1.0629(9) 1.1233(7) 0.2798(7)
O7 O 1.1123(8) 1.2227(7) 0.0030(7)
O8 O 1.0196(8) 1.0663(6) 0.1151(6)
O9 O 0.6530(10) 1.0419(8) 0.0992(7)
O10 O 0.8110(10) 1.1487(9) -0.0390(7)
N1 N 0.1949(10) 0.8664(8) 0.3973(8)
N2 N 0.1913(12) 0.1907(9) 0.4177(9)
N3 N 0.6073(11) 0.8075(9) 0.1725(8)
C1 C 0.1963(15) 0.7728(10) 0.4853(11)
H5 H 0.2126 0.7734 0.5448
C2 C 0.1743(16) 0.6781(11) 0.4887(12)
H6 H 0.1783 0.6160 0.5506
C3 C 0.1465(19) 0.6685(11) 0.4061(13)
C4 C 0.1573(18) 0.7603(12) 0.3162(12)
H7 H 0.1520 0.7577 0.2545
C5 C 0.1766(18) 0.8615(12) 0.3107(12)
H8 H 0.1767 0.9237 0.2481
C6 C 0.094(2) 0.5668(11) 0.4148(13)
H9 H 0.0417 0.5757 0.3689
C7 C 0.121(2) 0.4635(12) 0.4862(15)
H10 H 0.1150 0.4514 0.5560
C8 C 0.1588(14) 0.3707(12) 0.4579(15)
C9 C 0.1754(17) 0.2696(13) 0.5409(15)
H11 H 0.1770 0.2606 0.6083
C10 C 0.1890(17) 0.1854(12) 0.5139(15)
H12 H 0.1975 0.1170 0.5676
C11 C 0.1810(15) 0.2873(10) 0.3415(11)
H13 H 0.1846 0.2940 0.2739
C12 C 0.1649(15) 0.3787(12) 0.3575(15)
H14 H 0.1582 0.4457 0.3014
C13 C 0.5877(14) 0.8022(11) 0.2699(11)
H15 H 0.6021 0.8626 0.2762
C14 C 0.5457(13) 0.7079(13) 0.3642(10)
H16 H 0.5335 0.7068 0.4311
C15 C 0.5235(14) 0.6202(13) 0.3573(11)
C16 C 0.5362(16) 0.6263(12) 0.2596(12)
H17 H 0.5178 0.5670 0.2533
C17 C 0.5764(16) 0.7202(12) 0.1682(11)
H18 H 0.5823 0.7228 0.1017
C18 C 0.4951(15) 0.5113(13) 0.4524(10)
H19 H 0.4691 0.4574 0.4417
C19 C 0.4643(12) 1.1134(10) 0.2501(12)
C20 C 0.6084(11) 1.1624(9) 0.2161(8)
H20 H 0.5857 1.2239 0.2345
C21 C 0.7166(11) 1.0952(9) 0.2766(8)
H21 H 0.6721 1.0631 0.3529
H22 H 0.7551 1.0376 0.2546
C22 C 0.8333(11) 1.1632(8) 0.2548(8)
H23 H 0.7864 1.2180 0.2801
C23 C 0.9034(11) 1.2275(9) 0.1357(8)
H24 H 0.9493 1.2855 0.1323
C24 C 0.7952(11) 1.2837(9) 0.0683(9)
H25 H 0.7543 1.3469 0.0802
H26 H 0.8438 1.3076 -0.0071
C25 C 0.6766(11) 1.2125(9) 0.0942(9)
H27 H 0.6052 1.2601 0.0600
C26 C 0.9372(14) 1.1035(9) 0.3237(10)
C27 C 1.0192(12) 1.1657(10) 0.0831(9)
C28 C 0.7199(13) 1.1279(11) 0.0499(10)
N3A N 0.3927(11) 0.1925(9) 0.8275(8)
C13A C 0.4123(14) 0.1978(11) 0.7301(11)
H15A H 0.3979 0.1374 0.7238
C14A C 0.4543(13) 0.2921(13) 0.6358(10)
H16A H 0.4665 0.2932 0.5689
C15A C 0.4765(14) 0.3798(13) 0.6427(11)
C16A C 0.4638(16) 0.3737(12) 0.7404(12)
H17A H 0.4822 0.4330 0.7467
C17A C 0.4236(16) 0.2798(12) 0.8318(11)
H18A H 0.4177 0.2772 0.8983
C18A C 0.5049(15) 0.4887(13) 0.5476(10)
H19A H 0.5309 0.5426 0.5583
Cd1A Cd 0.80432(8) -0.03405(6) 0.60608(6)
Cd2A Cd 0.23190(8) 0.07137(7) 0.97406(6)
O1A O 0.5663(9) -0.0358(7) 0.6543(8)
O2A O 0.0820(8) 0.1148(6) 0.8613(6)
H1A H 0.0093 0.0788 0.8970
H2A H 0.1242 0.0993 0.8087
O3A O 0.6195(9) -0.1561(7) 0.8043(7)
O4A O 0.3668(9) 0.0415(8) 1.0892(7)
H3A H 0.4079 0.0985 1.0682
H4A H 0.4270 -0.0093 1.0881
O5A O 0.1101(9) -0.0433(6) 0.5791(7)
O6A O -0.0629(9) -0.1233(7) 0.7202(7)
O7A O -0.1123(8) -0.2227(7) 0.9970(7)
O8A O -0.0196(8) -0.0663(6) 0.8849(6)
O9A O 0.3470(10) -0.0419(8) 0.9008(7)
O10A O 0.1890(10) -0.1487(9) 1.0390(7)
N1A N 0.8051(10) 0.1336(8) 0.6027(8)
N2A N 0.8087(12) 0.8093(9) 0.5823(9)
C1A C 0.8037(15) 0.2272(10) 0.5147(11)
H5A H 0.7874 0.2266 0.4552
C2A C 0.8257(16) 0.3219(11) 0.5113(12)
H6A H 0.8217 0.3840 0.4494
C3A C 0.8535(19) 0.3315(11) 0.5939(13)
C4A C 0.8427(18) 0.2397(12) 0.6838(12)
H7A H 0.8480 0.2423 0.7455
C5A C 0.8234(18) 0.1385(12) 0.6893(12)
H8A H 0.8233 0.0763 0.7519
C6A C 0.906(2) 0.4332(11) 0.5852(13)
H9A H 0.9583 0.4243 0.6311
C7A C 0.879(2) 0.5365(12) 0.5138(15)
H10A H 0.8850 0.5486 0.4440
C8A C 0.8412(14) 0.6293(12) 0.5421(15)
C9A C 0.8246(17) 0.7304(13) 0.4591(15)
H11A H 0.8230 0.7394 0.3917
C10A C 0.8110(17) 0.8146(12) 0.4861(15)
H12A H 0.8025 0.8830 0.4324
C11A C 0.8190(15) 0.7127(10) 0.6585(11)
H13A H 0.8154 0.7060 0.7261
C12A C 0.8351(15) 0.6213(12) 0.6425(15)
H14A H 0.8418 0.5543 0.6986
C19A C 0.5357(12) -0.1134(10) 0.7499(12)
C20A C 0.3916(11) -0.1624(9) 0.7839(8)
H20A H 0.4143 -0.2239 0.7655
C21A C 0.2834(11) -0.0952(9) 0.7234(8)
H21A H 0.3279 -0.0631 0.6471
H22A H 0.2449 -0.0376 0.7454
C22A C 0.1667(11) -0.1632(8) 0.7452(8)
H23A H 0.2136 -0.2180 0.7199
C23A C 0.0966(11) -0.2275(9) 0.8643(8)
H24A H 0.0507 -0.2855 0.8677
C24A C 0.2048(11) -0.2837(9) 0.9317(9)
H25A H 0.2457 -0.3469 0.9198
H26A H 0.1562 -0.3076 1.0071
C25A C 0.3234(11) -0.2125(9) 0.9058(9)
H27A H 0.3948 -0.2601 0.9400
C26A C 0.0628(14) -0.1035(9) 0.6763(10)
C27A C -0.0192(12) -0.1657(10) 0.9169(9)
C28A C 0.2801(13) -0.1279(11) 0.9501(10)
Cd1_2 Cd 0.19568(8) 0.03405(6) 0.39392(6)
Cd1_3 Cd 1.19568(8) 1.03405(6) 0.39392(6)
Cd1A_2 Cd -0.19568(8) -0.03405(6) 0.60608(6)
Cd1A_3 Cd 0.80432(8) 0.96595(6) 0.60608(6)
Cd2_2 Cd -0.23190(8) -0.07137(7) 1.02594(6)
Cd2A_2 Cd 1.23190(8) 1.07137(7) -0.02594(6)
O5_2 O 0.8899(9) 0.0433(6) 0.4209(7)
O5A_2 O 0.1101(9) 0.9567(6) 0.5791(7)
O6_2 O 0.0629(9) 1.1233(7) 0.2798(7)
O6A_2 O 0.9371(9) -0.1233(7) 0.7202(7)
O7_2 O 0.1123(8) 0.2227(7) 1.0030(7)
O7A_2 O 0.8877(8) 0.7773(7) -0.0030(7)
O8_2 O 0.0196(8) 0.0663(6) 1.1151(6)
O8A_2 O 0.9804(8) 0.9337(6) -0.1151(6)
N2_2 N 0.1913(12) 1.1907(9) 0.4177(9)
N2A_2 N 0.8087(12) -0.1907(9) 0.5823(9)
O11 O 0.934(2) 0.6171(15) 0.2239(14)
O12 O 0.8727(13) 0.5607(10) 0.0343(12)
O13 O 0.824(3) 0.4305(14) 0.2371(17)
O14 O 0.4606(18) 0.4855(12) 0.1350(11)
O15 O 0.5513(19) 0.3523(14) 0.3326(15)
O16 O 0.4997(19) 0.1399(15) 0.4809(13)
O17 O 0.3508(13) 0.3741(10) 0.0537(9)
loop_
_geom_bond_atom_site_label_1
_geom_bond_atom_site_label_2
_geom_bond_site_symmetry_1
_geom_bond_site_symmetry_2
Cd1 O1 1_555 1_555
Cd2 O2 1_555 1_555
O1 C19 1_555 1_555
O2 H1 1_555 1_555
H2 O2 1_555 1_555
O3 C19 1_555 1_555
O4 Cd2 1_555 1_555
H3 O4 1_555 1_555
H4 O4 1_555 1_555
O5 C26 1_555 1_555
O6 C26 1_555 1_555
O7 C27 1_555 1_555
O8 C27 1_555 1_555
O9 Cd2 1_555 1_555
O10 C28 1_555 1_555
N1 Cd1 1_555 1_555
N2 C10 1_555 1_555
N3 Cd2 1_555 1_555
C1 N1 1_555 1_555
H5 C1 1_555 1_555
C2 C1 1_555 1_555
H6 C2 1_555 1_555
C3 C2 1_555 1_555
C4 C3 1_555 1_555
H7 C4 1_555 1_555
C5 N1 1_555 1_555
H8 C5 1_555 1_555
C6 C3 1_555 1_555
H9 C6 1_555 1_555
C7 C6 1_555 1_555
H10 C7 1_555 1_555
C8 C7 1_555 1_555
C9 C8 1_555 1_555
H11 C9 1_555 1_555
C10 C9 1_555 1_555
H12 C10 1_555 1_555
C11 N2 1_555 1_555
H13 C11 1_555 1_555
C12 C8 1_555 1_555
H14 C12 1_555 1_555
C13 N3 1_555 1_555
H15 C13 1_555 1_555
C14 C13 1_555 1_555
H16 C14 1_555 1_555
C15 C14 1_555 1_555
C16 C15 1_555 1_555
H17 C16 1_555 1_555
C17 N3 1_555 1_555
H18 C17 1_555 1_555
C18 C15 1_555 1_555
H19 C18 1_555 1_555
C19 C20 1_555 1_555
C20 H20 1_555 1_555
C21 C20 1_555 1_555
H21 C21 1_555 1_555
H22 C21 1_555 1_555
C22 C21 1_555 1_555
H23 C22 1_555 1_555
C23 C22 1_555 1_555
H24 C23 1_555 1_555
C24 C23 1_555 1_555
H25 C24 1_555 1_555
H26 C24 1_555 1_555
C25 C20 1_555 1_555
H27 C25 1_555 1_555
C26 C22 1_555 1_555
C27 C23 1_555 1_555
C28 O9 1_555 1_555
N3A C13A 1_555 1_555
C13A H15A 1_555 1_555
C14A C13A 1_555 1_555
H16A C14A 1_555 1_555
C15A C14A 1_555 1_555
C16A C15A 1_555 1_555
H17A C16A 1_555 1_555
C17A N3A 1_555 1_555
H18A C17A 1_555 1_555
C18A C18 1_555 1_555
H19A C18A 1_555 1_555
Cd1A O1A 1_555 1_555
Cd2A N3A 1_555 1_555
O1A C19A 1_555 1_555
O2A Cd2A 1_555 1_555
H1A O2A 1_555 1_555
H2A O2A 1_555 1_555
O3A C19A 1_555 1_555
O4A Cd2A 1_555 1_555
H3A O4A 1_555 1_555
H4A O4A 1_555 1_555
O5A C26A 1_555 1_555
O6A C26A 1_555 1_555
O7A C27A 1_555 1_555
O8A C27A 1_555 1_555
O9A Cd2A 1_555 1_555
O10A C28A 1_555 1_555
N1A Cd1A 1_555 1_555
N2A C10A 1_555 1_555
C1A N1A 1_555 1_555
H5A C1A 1_555 1_555
C2A C1A 1_555 1_555
H6A C2A 1_555 1_555
C3A C2A 1_555 1_555
C4A C3A 1_555 1_555
H7A C4A 1_555 1_555
C5A N1A 1_555 1_555
H8A C5A 1_555 1_555
C6A C3A 1_555 1_555
H9A C6A 1_555 1_555
C7A C6A 1_555 1_555
H10A C7A 1_555 1_555
C8A C7A 1_555 1_555
C9A C8A 1_555 1_555
H11A C9A 1_555 1_555
C10A C9A 1_555 1_555
H12A C10A 1_555 1_555
C11A N2A 1_555 1_555
H13A C11A 1_555 1_555
C12A C8A 1_555 1_555
H14A C12A 1_555 1_555
C19A C20A 1_555 1_555
C20A H20A 1_555 1_555
C21A C20A 1_555 1_555
H21A C21A 1_555 1_555
H22A C21A 1_555 1_555
C22A C21A 1_555 1_555
H23A C22A 1_555 1_555
C23A C22A 1_555 1_555
H24A C23A 1_555 1_555
C24A C23A 1_555 1_555
H25A C24A 1_555 1_555
H26A C24A 1_555 1_555
C25A C20A 1_555 1_555
H27A C25A 1_555 1_555
C26A C22A 1_555 1_555
C27A C23A 1_555 1_555
C28A O9A 1_555 1_555
Cd1_2 N2 1_555 1_555
Cd1_3 O6 1_555 1_555
Cd1A_2 O6A 1_555 1_555
Cd1A_3 O5 1_555 1_555
Cd2_2 O7A 1_555 1_555
Cd2A_2 O7 1_555 1_555
O5_2 Cd1A 1_555 1_555
O5A_2 Cd1 1_555 1_555
O6_2 Cd1 1_555 1_555
O6A_2 Cd1A 1_555 1_555
O7_2 Cd2A 1_555 1_555
O7A_2 Cd2 1_555 1_555
O8_2 Cd2A 1_555 1_555
O8A_2 Cd2 1_555 1_555
N2_2 Cd1 1_555 1_555
N2A_2 Cd1A 1_555 1_555
O8 Cd2A_2 1_555 1_555
C4 C5 1_555 1_555
C11 C12 1_555 1_555
C16 C17 1_555 1_555
C24 C25 1_555 1_555
C25 C28 1_555 1_555
C15A C18A 1_555 1_555
C16A C17A 1_555 1_555
O5A Cd1_2 1_555 1_555
O8A Cd2_2 1_555 1_555
N2A Cd1A_3 1_555 1_555
C4A C5A 1_555 1_555
C11A C12A 1_555 1_555
C24A C25A 1_555 1_555
C25A C28A 1_555 1_555

#END
