
#######################################################################
#
#                 Cambridge Crystallographic Data Centre
#                                CCDC 
#
#######################################################################
#
# If this CIF has been generated from an entry in the Cambridge 
# Structural Database, then it will include bibliographic, chemical, 
# crystal, experimental, refinement or atomic coordinate data resulting 
# from the CCDC's data processing and validation procedures.
#
#######################################################################

data_YOQJIZ
_symmetry_cell_setting           triclinic
_symmetry_space_group_name_H-M   'P -1'
_symmetry_Int_Tables_number      2
_space_group_name_Hall           '-P 1'
loop_
_symmetry_equiv_pos_site_id
_symmetry_equiv_pos_as_xyz
1 x,y,z
2 -x,-y,-z
_cell_length_a                   7.3994(15)
_cell_length_b                   9.6917(19)
_cell_length_c                   10.915(2)
_cell_angle_alpha                103.60(3)
_cell_angle_beta                 101.37(3)
_cell_angle_gamma                97.26(3)
_cell_volume                     733.51
loop_
_atom_site_label
_atom_site_type_symbol
_atom_site_fract_x
_atom_site_fract_y
_atom_site_fract_z
Zn1 Zn 0.0000 0.5000 0.0000
O1 O -0.2343(3) 0.6003(2) 0.02327(19)
H1 H -0.3402 0.5280 0.0159
H2 H -0.2628 0.6496 -0.0429
O2 O 0.0706(3) 0.5171(2) 0.19909(18)
H3 H 0.0072 0.4331 0.2156
H4 H 0.0329 0.6016 0.2452
N1 N 0.1765(3) 0.7088(2) 0.0258(2)
C1 C 0.4321(3) 0.9406(3) 0.0078(2)
C2 C 0.4825(4) 0.8576(3) 0.0906(3)
H5 H 0.6034 0.8777 0.1428
C3 C 0.3535(4) 0.7437(3) 0.0963(3)
H6 H 0.3921 0.6885 0.1522
C4 C 0.2457(4) 0.9085(3) -0.0628(3)
H7 H 0.2030 0.9636 -0.1179
C5 C 0.1252(4) 0.7940(3) -0.0503(3)
H8 H 0.0014 0.7751 -0.0974
N1A N 0.8235(3) 1.2912(2) -0.0258(2)
C1A C 0.5679(3) 1.0594(3) -0.0078(2)
C2A C 0.5175(4) 1.1424(3) -0.0906(3)
H5A H 0.3966 1.1223 -0.1428
C3A C 0.6465(4) 1.2563(3) -0.0963(3)
H6A H 0.6079 1.3115 -0.1522
C4A C 0.7543(4) 1.0915(3) 0.0628(3)
H7A H 0.7970 1.0364 0.1179
C5A C 0.8748(4) 1.2060(3) 0.0503(3)
H8A H 0.9986 1.2249 0.0974
O1A O 0.2343(3) 0.3997(2) -0.02327(19)
H1A H 0.3402 0.4720 -0.0159
H2A H 0.2628 0.3504 0.0429
O2A O -0.0706(3) 0.4829(2) -0.19909(18)
H3A H -0.0072 0.5669 -0.2156
H4A H -0.0329 0.3984 -0.2452
Zn1_2 Zn 1.0000 1.5000 0.0000
N1A_2 N -0.1765(3) 0.2912(2) -0.0258(2)
O3 O 0.5660(3) 0.4765(2) 0.1673(2)
N2 N 0.5685(3) 0.2709(2) 0.4010(2)
O4 O 0.7996(3) 0.4272(2) 0.3043(2)
N3 N 0.6072(3) 0.1381(2) 0.3771(2)
C6 C 0.6323(4) 0.4194(3) 0.2534(3)
N4 N 0.6269(4) 0.3451(3) 0.5229(2)
C7 C 0.6929(3) 0.1340(3) 0.4943(3)
N5 N 0.7067(3) 0.2592(3) 0.5849(2)
C8 C 0.8379(5) 0.0053(4) 0.6499(3)
H9 H 0.8426 0.0860 0.7171
N6 N 0.7540(4) -0.1052(3) 0.4235(3)
C9 C 0.4850(4) 0.3331(3) 0.3004(3)
H10 H 0.4034 0.3960 0.3333
H11 H 0.4088 0.2564 0.2277
C10 C 0.7644(4) 0.0070(3) 0.5239(3)
N7 N 0.9024(4) -0.1086(4) 0.6780(4)
C11 C 0.8945(5) -0.2185(5) 0.5787(5)
H12 H 0.9415 -0.2988 0.5944
C12 C 0.8199(5) -0.2198(4) 0.4528(5)
H13 H 0.8147 -0.3014 0.3863
loop_
_geom_bond_atom_site_label_1
_geom_bond_atom_site_label_2
_geom_bond_site_symmetry_1
_geom_bond_site_symmetry_2
Zn1 O1 1_555 1_555
O1 H1 1_555 1_555
H2 O1 1_555 1_555
O2 Zn1 1_555 1_555
H3 O2 1_555 1_555
H4 O2 1_555 1_555
N1 Zn1 1_555 1_555
C1 C2 1_555 1_555
C2 H5 1_555 1_555
C3 N1 1_555 1_555
H6 C3 1_555 1_555
C4 C1 1_555 1_555
H7 C4 1_555 1_555
C5 N1 1_555 1_555
H8 C5 1_555 1_555
O3 C6 1_555 1_555
N2 N3 1_555 1_555
O4 C6 1_555 1_555
N3 C7 1_555 1_555
C6 C9 1_555 1_555
N4 N2 1_555 1_555
C7 N5 1_555 1_555
N5 N4 1_555 1_555
C8 H9 1_555 1_555
N6 C10 1_555 1_555
C9 N2 1_555 1_555
H10 C9 1_555 1_555
H11 C9 1_555 1_555
C10 C7 1_555 1_555
N7 C8 1_555 1_555
C11 N7 1_555 1_555
H12 C11 1_555 1_555
C12 N6 1_555 1_555
H13 C12 1_555 1_555
N1A C3A 1_555 1_555
C1A C1 1_555 1_555
C2A C1A 1_555 1_555
H5A C2A 1_555 1_555
C3A C2A 1_555 1_555
H6A C3A 1_555 1_555
C4A C1A 1_555 1_555
H7A C4A 1_555 1_555
C5A N1A 1_555 1_555
H8A C5A 1_555 1_555
O1A Zn1 1_555 1_555
H1A O1A 1_555 1_555
H2A O1A 1_555 1_555
O2A Zn1 1_555 1_555
H3A O2A 1_555 1_555
H4A O2A 1_555 1_555
Zn1_2 N1A 1_555 1_555
N1A_2 Zn1 1_555 1_555
C2 C3 1_555 1_555
C4 C5 1_555 1_555
C8 C10 1_555 1_555
C11 C12 1_555 1_555
C4A C5A 1_555 1_555

#END
