
#######################################################################
#
#                 Cambridge Crystallographic Data Centre
#                                CCDC 
#
#######################################################################
#
# If this CIF has been generated from an entry in the Cambridge 
# Structural Database, then it will include bibliographic, chemical, 
# crystal, experimental, refinement or atomic coordinate data resulting 
# from the CCDC's data processing and validation procedures.
#
#######################################################################

data_YOQMUO
_symmetry_cell_setting           monoclinic
_symmetry_space_group_name_H-M   'P 21/c'
_symmetry_Int_Tables_number      14
_space_group_name_Hall           '-P 2ybc'
loop_
_symmetry_equiv_pos_site_id
_symmetry_equiv_pos_as_xyz
1 x,y,z
2 -x,1/2+y,1/2-z
3 -x,-y,-z
4 x,1/2-y,1/2+z
_cell_length_a                   10.196(2)
_cell_length_b                   13.371(3)
_cell_length_c                   12.764(3)
_cell_angle_alpha                90
_cell_angle_beta                 111.18(3)
_cell_angle_gamma                90
_cell_volume                     1622.58
loop_
_atom_site_label
_atom_site_type_symbol
_atom_site_fract_x
_atom_site_fract_y
_atom_site_fract_z
Zn1 Zn 0.68194(9) 0.40820(7) 0.27750(7)
O1 O 0.3577(5) 0.4154(4) 0.2647(4)
N1 N 0.8048(6) 0.4395(5) 0.1725(5)
N2 N 0.4703(6) 0.3275(5) 0.5497(5)
N3 N 0.5854(6) 0.2218(4) 0.6795(5)
N4 N 0.9662(6) 0.7185(5) 0.4683(5)
N5 N 0.9395(7) 0.7418(5) 0.5630(6)
C1 C 0.4437(8) 0.3947(5) 0.3607(6)
C2 C 0.4815(8) 0.2318(5) 0.5790(6)
N6 N 0.5695(7) 0.3804(5) 0.6341(6)
N7 N 0.3999(7) 0.1594(5) 0.5170(5)
H1 H 0.3351 0.1736 0.4538
H2 H 0.4121 0.0985 0.5404
N8 N 0.6371(7) 0.3161(5) 0.7102(5)
N9 N 1.0460(7) 0.7126(5) 0.6471(5)
C3 C 0.3777(8) 0.3759(6) 0.4486(6)
H3 H 0.3476 0.4395 0.4690
H4 H 0.2946 0.3348 0.4155
C4 C 0.9588(8) 0.4864(5) 0.0366(6)
C5 C 1.0930(7) 0.6743(6) 0.4995(6)
C6 C 0.9336(9) 0.4780(6) 0.2144(7)
H5 H 0.9720 0.4889 0.2915
N10 N 1.1550(7) 0.6433(6) 0.4283(5)
H6 H 1.2371 0.6164 0.4541
H7 H 1.1125 0.6504 0.3570
C7 C 0.7549(9) 0.4224(6) 0.0631(7)
H8 H 0.6659 0.3941 0.0321
C8 C 1.0134(8) 0.5026(6) 0.1528(7)
H9 H 1.1027 0.5297 0.1873
C9 C 0.8253(8) 0.4436(7) -0.0087(7)
H10 H 0.7847 0.4298 -0.0851
C10 C 0.8605(8) 0.7342(6) 0.3570(7)
H11 H 0.9077 0.7489 0.3050
H12 H 0.8044 0.7921 0.3594
O2 O 0.5763(5) 0.3915(4) 0.3900(4)
O3 O 0.5192(5) 0.4983(4) 0.1705(4)
H13 H 0.4819 0.5291 0.2078
H14 H 0.5533 0.5394 0.1365
O4 O 0.6649(6) 0.6622(4) 0.2188(4)
O5 O 0.7826(5) 0.5641(4) 0.3666(4)
C11 C 0.7616(8) 0.6443(6) 0.3118(6)
N11 N 1.1436(6) 0.6689(5) 0.6097(5)
N1B N 1.1952(6) 0.5605(5) -0.1725(5)
C4B C 1.0412(8) 0.5136(5) -0.0366(6)
C6B C 1.0664(9) 0.5220(6) -0.2144(7)
H5B H 1.0280 0.5111 -0.2915
C7B C 1.2451(9) 0.5776(6) -0.0631(7)
H8B H 1.3341 0.6059 -0.0321
C8B C 0.9866(8) 0.4974(6) -0.1528(7)
H9B H 0.8973 0.4703 -0.1873
C9B C 1.1747(8) 0.5564(7) 0.0087(7)
H10B H 1.2153 0.5702 0.0851
Zn1B Zn 1.31806(9) 0.59180(7) -0.27750(7)
O1B O 1.6423(5) 0.5846(4) -0.2647(4)
N2B N 1.5297(6) 0.6725(5) -0.5497(5)
N3B N 1.4146(6) 0.7782(4) -0.6795(5)
N4B N 1.0338(6) 0.2815(5) -0.4683(5)
N5B N 1.0605(7) 0.2582(5) -0.5630(6)
C1B C 1.5563(8) 0.6053(5) -0.3607(6)
C2B C 1.5185(8) 0.7682(5) -0.5790(6)
N6B N 1.4305(7) 0.6196(5) -0.6341(6)
N7B N 1.6001(7) 0.8406(5) -0.5170(5)
H1B H 1.6649 0.8264 -0.4538
H2B H 1.5879 0.9015 -0.5404
N8B N 1.3629(7) 0.6839(5) -0.7102(5)
N9B N 0.9540(7) 0.2874(5) -0.6471(5)
C3B C 1.6223(8) 0.6241(6) -0.4486(6)
H3B H 1.6524 0.5605 -0.4690
H4B H 1.7054 0.6652 -0.4155
C5B C 0.9070(7) 0.3257(6) -0.4995(6)
N10B N 0.8450(7) 0.3567(6) -0.4283(5)
H6B H 0.7629 0.3836 -0.4541
H7B H 0.8875 0.3496 -0.3570
C10B C 1.1395(8) 0.2658(6) -0.3570(7)
H11B H 1.0923 0.2511 -0.3050
H12B H 1.1956 0.2079 -0.3594
O2B O 1.4237(5) 0.6085(4) -0.3900(4)
O3B O 1.4808(5) 0.5017(4) -0.1705(4)
H13B H 1.5181 0.4709 -0.2078
H14B H 1.4467 0.4606 -0.1365
O4B O 1.3351(6) 0.3378(4) -0.2188(4)
O5B O 1.2174(5) 0.4359(4) -0.3666(4)
C11B C 1.2384(8) 0.3557(6) -0.3118(6)
N11B N 0.8564(6) 0.3311(5) -0.6097(5)
Zn1_2 Zn 0.68194(9) 0.40820(7) -0.72250(7)
Zn1A Zn 1.31806(9) 0.90820(7) -0.77750(7)
Zn1B_2 Zn 1.31806(9) 0.59180(7) 0.72250(7)
Zn1C Zn 0.68194(9) 0.09180(7) 0.77750(7)
N3A N 1.4146(6) 0.7218(4) -0.1795(5)
N3C N 0.5854(6) 0.2782(4) 0.1795(5)
N11_2 N 1.1436(6) 0.6689(5) -0.3903(5)
N11B_2 N 0.8564(6) 0.3311(5) 0.3903(5)
loop_
_geom_bond_atom_site_label_1
_geom_bond_atom_site_label_2
_geom_bond_site_symmetry_1
_geom_bond_site_symmetry_2
Zn1 N1 1_555 1_555
O1 C1 1_555 1_555
N1 C6 1_555 1_555
N2 C2 1_555 1_555
N3 C2 1_555 1_555
N4 N5 1_555 1_555
N5 N9 1_555 1_555
C1 C3 1_555 1_555
C2 N7 1_555 1_555
N6 N2 1_555 1_555
N7 H1 1_555 1_555
H2 N7 1_555 1_555
N8 N3 1_555 1_555
N9 N11 1_555 1_555
C3 N2 1_555 1_555
H3 C3 1_555 1_555
H4 C3 1_555 1_555
C4 C8 1_555 1_555
C5 N4 1_555 1_555
C6 H5 1_555 1_555
N10 C5 1_555 1_555
H6 N10 1_555 1_555
H7 N10 1_555 1_555
C7 N1 1_555 1_555
H8 C7 1_555 1_555
C8 C6 1_555 1_555
H9 C8 1_555 1_555
C9 C4 1_555 1_555
H10 C9 1_555 1_555
C10 N4 1_555 1_555
H11 C10 1_555 1_555
H12 C10 1_555 1_555
O2 Zn1 1_555 1_555
O3 Zn1 1_555 1_555
H13 O3 1_555 1_555
H14 O3 1_555 1_555
O4 C11 1_555 1_555
O5 Zn1 1_555 1_555
C11 C10 1_555 1_555
N11 C5 1_555 1_555
N1B C6B 1_555 1_555
C4B C4 1_555 1_555
C6B H5B 1_555 1_555
C7B N1B 1_555 1_555
H8B C7B 1_555 1_555
C8B C4B 1_555 1_555
H9B C8B 1_555 1_555
C9B C4B 1_555 1_555
H10B C9B 1_555 1_555
Zn1B N1B 1_555 1_555
O1B C1B 1_555 1_555
N2B C2B 1_555 1_555
N3B C2B 1_555 1_555
N4B N5B 1_555 1_555
N5B N9B 1_555 1_555
C1B C3B 1_555 1_555
C2B N7B 1_555 1_555
N6B N2B 1_555 1_555
N7B H1B 1_555 1_555
H2B N7B 1_555 1_555
N8B N3B 1_555 1_555
N9B N11B 1_555 1_555
C3B N2B 1_555 1_555
H3B C3B 1_555 1_555
H4B C3B 1_555 1_555
C5B N4B 1_555 1_555
N10B C5B 1_555 1_555
H6B N10B 1_555 1_555
H7B N10B 1_555 1_555
C10B N4B 1_555 1_555
H11B C10B 1_555 1_555
H12B C10B 1_555 1_555
O2B Zn1B 1_555 1_555
O3B Zn1B 1_555 1_555
H13B O3B 1_555 1_555
H14B O3B 1_555 1_555
O4B C11B 1_555 1_555
O5B Zn1B 1_555 1_555
C11B C10B 1_555 1_555
N11B C5B 1_555 1_555
Zn1_2 N11B 1_555 1_555
Zn1A N3B 1_555 1_555
Zn1B_2 N11 1_555 1_555
Zn1C N3 1_555 1_555
N3A Zn1B 1_555 1_555
N3C Zn1 1_555 1_555
N11_2 Zn1B 1_555 1_555
N11B_2 Zn1 1_555 1_555
C1 O2 1_555 1_555
N6 N8 1_555 1_555
C7 C9 1_555 1_555
O5 C11 1_555 1_555
C6B C8B 1_555 1_555
C7B C9B 1_555 1_555
C1B O2B 1_555 1_555
N6B N8B 1_555 1_555
O5B C11B 1_555 1_555

#END
