
#######################################################################
#
#                 Cambridge Crystallographic Data Centre
#                                CCDC 
#
#######################################################################
#
# If this CIF has been generated from an entry in the Cambridge 
# Structural Database, then it will include bibliographic, chemical, 
# crystal, experimental, refinement or atomic coordinate data resulting 
# from the CCDC's data processing and validation procedures.
#
#######################################################################

data_YOQPEA
_symmetry_cell_setting           triclinic
_symmetry_space_group_name_H-M   'P -1'
_symmetry_Int_Tables_number      2
_space_group_name_Hall           '-P 1'
loop_
_symmetry_equiv_pos_site_id
_symmetry_equiv_pos_as_xyz
1 x,y,z
2 -x,-y,-z
_cell_length_a                   7.290(3)
_cell_length_b                   10.062(3)
_cell_length_c                   26.152(7)
_cell_angle_alpha                98.21(2)
_cell_angle_beta                 91.56(5)
_cell_angle_gamma                106.92(5)
_cell_volume                     1811.65
loop_
_atom_site_label
_atom_site_type_symbol
_atom_site_fract_x
_atom_site_fract_y
_atom_site_fract_z
Co1 Co 0.5000 0.0000 0.0000
O18 O 0.4257(2) -0.22228(15) -0.00351(6)
O19 O 0.7137(2) -0.25774(16) -0.00321(6)
O21 O 0.2043(2) -0.02180(16) -0.00446(6)
H17 H 0.144(4) -0.066(3) 0.0189(9)
H18 H 0.202(4) 0.0650(19) 0.0020(10)
N4 N 0.4984(3) 0.02631(19) 0.08375(7)
N5 N 0.4907(3) 0.0687(2) 0.24606(8)
H23 H 0.479(4) 0.000(3) 0.2554(12)
N6 N 0.5246(4) 0.3881(3) 0.36700(9)
H24 H 0.533(5) 0.454(3) 0.3932(10)
C1 C 0.4664(4) 0.2533(3) 0.37390(10)
H25 H 0.4343 0.2315 0.4065
C2 C 0.4535(4) 0.1474(3) 0.33394(9)
H26 H 0.4139 0.0543 0.3394
C3 C 0.5002(3) 0.1793(2) 0.28407(9)
C4 C 0.5617(4) 0.3220(3) 0.27821(10)
H27 H 0.5948 0.3479 0.2462
C5 C 0.5720(4) 0.4222(3) 0.32041(11)
H28 H 0.6132 0.5166 0.3166
C6 C 0.4956(3) 0.0627(2) 0.19264(8)
C7 C 0.5227(4) -0.0579(3) 0.16420(9)
H29 H 0.5407 -0.1289 0.1811
C8 C 0.5228(4) -0.0711(2) 0.11113(9)
H30 H 0.5409 -0.1524 0.0931
C9 C 0.4699(3) 0.1409(2) 0.11134(9)
H31 H 0.4514 0.2098 0.0933
C10 C 0.4662(3) 0.1635(2) 0.16466(9)
H32 H 0.4444 0.2447 0.1816
C23 C 0.5333(3) -0.3012(2) -0.00304(8)
C24 C 0.4326(3) -0.4561(2) -0.00296(11)
H43 H 0.3534 -0.4941 -0.0351
H44 H 0.3479 -0.4648 0.0251
Co1_2 Co 0.5000 -1.0000 0.0000
O18A O 0.5743(2) -0.77772(15) 0.00351(6)
O18A_2 O 0.5743(2) 0.22228(15) 0.00351(6)
O19A O 0.2863(2) -0.74226(16) 0.00321(6)
O21A O 0.7957(2) 0.02180(16) 0.00446(6)
H17A H 0.856(4) 0.066(3) -0.0189(9)
H18A H 0.798(4) -0.0650(19) -0.0020(10)
N4A N 0.5016(3) -0.02631(19) -0.08375(7)
N5A N 0.5093(3) -0.0687(2) -0.24606(8)
H23A H 0.521(4) 0.000(3) -0.2554(12)
N6A N 0.4754(4) -0.3881(3) -0.36700(9)
H24A H 0.467(5) -0.454(3) -0.3932(10)
C1A C 0.5336(4) -0.2533(3) -0.37390(10)
H25A H 0.5657 -0.2315 -0.4065
C2A C 0.5465(4) -0.1474(3) -0.33394(9)
H26A H 0.5861 -0.0543 -0.3394
C3A C 0.4998(3) -0.1793(2) -0.28407(9)
C4A C 0.4383(4) -0.3220(3) -0.27821(10)
H27A H 0.4052 -0.3479 -0.2462
C5A C 0.4280(4) -0.4222(3) -0.32041(11)
H28A H 0.3868 -0.5166 -0.3166
C6A C 0.5044(3) -0.0627(2) -0.19264(8)
C7A C 0.4773(4) 0.0579(3) -0.16420(9)
H29A H 0.4593 0.1289 -0.1811
C8A C 0.4772(4) 0.0711(2) -0.11113(9)
H30A H 0.4591 0.1524 -0.0931
C9A C 0.5301(3) -0.1409(2) -0.11134(9)
H31A H 0.5486 -0.2098 -0.0933
C10A C 0.5338(3) -0.1635(2) -0.16466(9)
H32A H 0.5556 -0.2447 -0.1816
C23A C 0.4667(3) -0.6988(2) 0.00304(8)
C24A C 0.5674(3) -0.5439(2) 0.00296(11)
H43A H 0.6466 -0.5059 0.0351
H44A H 0.6521 -0.5352 -0.0251
Co2 Co 0.0000 0.5000 0.5000
O13 O -0.0747(3) 0.68588(16) 0.49110(6)
O15 O 0.2093(3) 0.84792(19) 0.50611(9)
O22 O -0.2946(3) 0.38445(17) 0.48623(6)
H19 H -0.372(4) 0.400(3) 0.5098(10)
H20 H -0.291(4) 0.299(2) 0.4867(11)
N1 N -0.0068(3) 0.0323(2) 0.14672(8)
H21 H -0.008(4) -0.038(3) 0.1228(10)
N2 N 0.0569(3) 0.3832(2) 0.25662(8)
H22 H 0.074(4) 0.463(2) 0.2440(11)
N3 N 0.0297(3) 0.4560(2) 0.41851(7)
C11 C 0.1092(4) 0.5583(2) 0.39115(9)
H33 H 0.1566 0.6498 0.4088
C12 C 0.1250(4) 0.5363(2) 0.33838(9)
H34 H 0.1840 0.6111 0.3215
C13 C 0.0516(3) 0.4004(2) 0.31047(9)
C14 C -0.0336(3) 0.2929(2) 0.33844(9)
H35 H -0.0856 0.2008 0.3217
C15 C -0.0394(4) 0.3256(2) 0.39130(9)
H36 H -0.0949 0.2525 0.4094
C16 C 0.0334(3) 0.2631(2) 0.22207(9)
C17 C 0.0049(4) 0.2700(3) 0.16895(9)
H37 H -0.0007 0.3537 0.1588
C18 C -0.0145(4) 0.1542(3) 0.13258(9)
H38 H -0.0332 0.1595 0.0977
C19 C 0.0201(4) 0.0215(3) 0.19672(10)
H39 H 0.0246 -0.0640 0.2055
C20 C 0.0411(3) 0.1337(3) 0.23501(9)
H40 H 0.0603 0.1246 0.2695
C21 C 0.0320(4) 0.8133(2) 0.49787(9)
C22 C -0.0670(4) 0.9261(2) 0.49739(10)
H41 H -0.1465 0.9060 0.4652
H42 H -0.1515 0.9212 0.5255
Co2_2 Co 0.0000 1.5000 0.5000
O13A O 0.0747(3) 1.31412(16) 0.50890(6)
O13A_2 O 0.0747(3) 0.31412(16) 0.50890(6)
O15A O -0.2093(3) 1.15208(19) 0.49389(9)
O22A O 0.2946(3) 0.61555(17) 0.51377(6)
H19A H 0.372(4) 0.600(3) 0.4902(10)
H20A H 0.291(4) 0.701(2) 0.5133(11)
N1A N 0.0068(3) 0.9677(2) 0.85328(8)
H21A H 0.008(4) 1.038(3) 0.8772(10)
N2A N -0.0569(3) 0.6168(2) 0.74338(8)
H22A H -0.074(4) 0.537(2) 0.7560(11)
N3A N -0.0297(3) 0.5440(2) 0.58149(7)
C11A C -0.1092(4) 0.4417(2) 0.60885(9)
H33A H -0.1566 0.3502 0.5912
C12A C -0.1250(4) 0.4637(2) 0.66162(9)
H34A H -0.1840 0.3889 0.6785
C13A C -0.0516(3) 0.5996(2) 0.68953(9)
C14A C 0.0336(3) 0.7071(2) 0.66156(9)
H35A H 0.0856 0.7992 0.6783
C15A C 0.0394(4) 0.6744(2) 0.60870(9)
H36A H 0.0949 0.7475 0.5906
C16A C -0.0334(3) 0.7369(2) 0.77793(9)
C17A C -0.0049(4) 0.7300(3) 0.83105(9)
H37A H 0.0007 0.6463 0.8412
C18A C 0.0145(4) 0.8458(3) 0.86742(9)
H38A H 0.0332 0.8405 0.9023
C19A C -0.0201(4) 0.9785(3) 0.80328(10)
H39A H -0.0246 1.0640 0.7945
C20A C -0.0411(3) 0.8663(3) 0.76499(9)
H40A H -0.0603 0.8754 0.7305
C21A C -0.0320(4) 1.1867(2) 0.50213(9)
C22A C 0.0670(4) 1.0739(2) 0.50261(10)
H41A H 0.1465 1.0940 0.5348
H42A H 0.1515 1.0788 0.4745
O1 O 0.7159(4) 0.4737(2) 0.15192(13)
O2 O 0.5645(9) 0.6278(4) 0.12247(14)
O4 O 0.4474(4) 0.5130(3) 0.18821(15)
O5 O 0.7305(5) 0.6880(4) 0.2030(2)
Cl1 Cl 0.61725(10) 0.57512(7) 0.16600(3)
O3 O -0.4325(3) 0.61552(19) 0.44159(7)
H1 H -0.318(3) 0.639(3) 0.4565(11)
H2 H -0.441(4) 0.685(3) 0.4267(11)
O6 O 0.4582(3) -0.2000(2) 0.27582(9)
H3 H 0.546(4) -0.239(4) 0.2648(13)
H4 H 0.498(5) -0.169(4) 0.3075(8)
O7 O 0.0728(4) 0.8847(3) 0.29477(10)
O9 O 0.1157(7) 0.8853(4) 0.38214(13)
O17 O -0.1647(6) 0.7394(3) 0.3368(2)
O20 O -0.1186(6) 0.9781(3) 0.35008(18)
Cl2 Cl -0.03011(14) 0.87094(8) 0.33992(4)
O8 O 1.0138(2) -0.17690(17) 0.07039(6)
H5 H 0.904(3) -0.222(3) 0.0546(10)
H6 H 1.054(4) -0.241(3) 0.0833(11)
O10 O -0.4817(5) 0.8322(5) 0.3953(2)
H7 H -0.435(9) 0.899(6) 0.422(2)
H8 H -0.597(5) 0.836(7) 0.388(3)
O11 O 0.0286(3) -0.3617(2) -0.04977(8)
H9 H -0.059(3) -0.338(3) -0.0318(11)
H10 H 0.138(3) -0.324(3) -0.0319(11)
O12 O 0.1097(3) 0.6433(2) 0.21753(8)
H11 H 0.011(3) 0.671(3) 0.2239(13)
H12 H 0.212(3) 0.698(3) 0.2327(12)
O14 O 0.1323(3) 0.6236(2) 0.10871(8)
H13 H 0.066(4) 0.540(2) 0.0922(12)
H14 H 0.247(3) 0.621(4) 0.1153(13)
O16 O -0.5443(8) 1.0109(6) 0.4469(2)
H15 H -0.615(5) 0.953(4) 0.4689(14)
H16 H -0.429(4) 1.059(4) 0.4670(14)
loop_
_geom_bond_atom_site_label_1
_geom_bond_atom_site_label_2
_geom_bond_site_symmetry_1
_geom_bond_site_symmetry_2
Co1 O18 1_555 1_555
Co2 O13 1_555 1_555
O1 Cl1 1_555 1_555
O2 Cl1 1_555 1_555
O3 H1 1_555 1_555
H2 O3 1_555 1_555
O4 Cl1 1_555 1_555
O5 Cl1 1_555 1_555
O6 H3 1_555 1_555
H4 O6 1_555 1_555
O7 Cl2 1_555 1_555
O8 H5 1_555 1_555
H6 O8 1_555 1_555
O9 Cl2 1_555 1_555
O10 H7 1_555 1_555
H8 O10 1_555 1_555
O11 H9 1_555 1_555
H10 O11 1_555 1_555
O12 H11 1_555 1_555
H12 O12 1_555 1_555
O13 C21 1_555 1_555
O14 H13 1_555 1_555
H14 O14 1_555 1_555
O15 C21 1_555 1_555
O16 H15 1_555 1_555
H16 O16 1_555 1_555
O17 Cl2 1_555 1_555
O18 C23 1_555 1_555
O19 C23 1_555 1_555
O20 Cl2 1_555 1_555
O21 Co1 1_555 1_555
H17 O21 1_555 1_555
H18 O21 1_555 1_555
O22 Co2 1_555 1_555
H19 O22 1_555 1_555
H20 O22 1_555 1_555
N1 H21 1_555 1_555
N2 H22 1_555 1_555
N3 Co2 1_555 1_555
N4 Co1 1_555 1_555
N5 H23 1_555 1_555
N6 H24 1_555 1_555
C1 N6 1_555 1_555
H25 C1 1_555 1_555
C2 C1 1_555 1_555
H26 C2 1_555 1_555
C3 N5 1_555 1_555
C4 C3 1_555 1_555
H27 C4 1_555 1_555
C5 N6 1_555 1_555
H28 C5 1_555 1_555
C6 N5 1_555 1_555
C7 C6 1_555 1_555
H29 C7 1_555 1_555
C8 N4 1_555 1_555
H30 C8 1_555 1_555
C9 N4 1_555 1_555
H31 C9 1_555 1_555
C10 C6 1_555 1_555
H32 C10 1_555 1_555
C11 N3 1_555 1_555
H33 C11 1_555 1_555
C12 C11 1_555 1_555
H34 C12 1_555 1_555
C13 N2 1_555 1_555
C14 C13 1_555 1_555
H35 C14 1_555 1_555
C15 N3 1_555 1_555
H36 C15 1_555 1_555
C16 N2 1_555 1_555
C17 C16 1_555 1_555
H37 C17 1_555 1_555
C18 N1 1_555 1_555
H38 C18 1_555 1_555
C19 N1 1_555 1_555
H39 C19 1_555 1_555
C20 C16 1_555 1_555
H40 C20 1_555 1_555
C21 C22 1_555 1_555
C22 H41 1_555 1_555
H42 C22 1_555 1_555
C23 C24 1_555 1_555
C24 H43 1_555 1_555
H44 C24 1_555 1_555
Co1_2 O18A 1_555 1_555
Co2_2 O13A 1_555 1_555
O13A C21A 1_555 1_555
O13A_2 Co2 1_555 1_555
O15A C21A 1_555 1_555
O18A C23A 1_555 1_555
O18A_2 Co1 1_555 1_555
O19A C23A 1_555 1_555
O21A Co1 1_555 1_555
H17A O21A 1_555 1_555
H18A O21A 1_555 1_555
O22A Co2 1_555 1_555
H19A O22A 1_555 1_555
H20A O22A 1_555 1_555
N1A H21A 1_555 1_555
N2A H22A 1_555 1_555
N3A Co2 1_555 1_555
N4A Co1 1_555 1_555
N5A H23A 1_555 1_555
N6A H24A 1_555 1_555
C1A N6A 1_555 1_555
H25A C1A 1_555 1_555
C2A C1A 1_555 1_555
H26A C2A 1_555 1_555
C3A N5A 1_555 1_555
C4A C3A 1_555 1_555
H27A C4A 1_555 1_555
C5A N6A 1_555 1_555
H28A C5A 1_555 1_555
C6A N5A 1_555 1_555
C7A C6A 1_555 1_555
H29A C7A 1_555 1_555
C8A N4A 1_555 1_555
H30A C8A 1_555 1_555
C9A N4A 1_555 1_555
H31A C9A 1_555 1_555
C10A C6A 1_555 1_555
H32A C10A 1_555 1_555
C11A N3A 1_555 1_555
H33A C11A 1_555 1_555
C12A C11A 1_555 1_555
H34A C12A 1_555 1_555
C13A N2A 1_555 1_555
C14A C13A 1_555 1_555
H35A C14A 1_555 1_555
C15A N3A 1_555 1_555
H36A C15A 1_555 1_555
C16A N2A 1_555 1_555
C17A C16A 1_555 1_555
H37A C17A 1_555 1_555
C18A N1A 1_555 1_555
H38A C18A 1_555 1_555
C19A N1A 1_555 1_555
H39A C19A 1_555 1_555
C20A C16A 1_555 1_555
H40A C20A 1_555 1_555
C21A C22A 1_555 1_555
C22A C22 1_555 1_555
H41A C22A 1_555 1_555
H42A C22A 1_555 1_555
C23A C24A 1_555 1_555
C24A C24 1_555 1_555
H43A C24A 1_555 1_555
H44A C24A 1_555 1_555
C2 C3 1_555 1_555
C4 C5 1_555 1_555
C7 C8 1_555 1_555
C9 C10 1_555 1_555
C12 C13 1_555 1_555
C14 C15 1_555 1_555
C17 C18 1_555 1_555
C19 C20 1_555 1_555
C2A C3A 1_555 1_555
C4A C5A 1_555 1_555
C7A C8A 1_555 1_555
C9A C10A 1_555 1_555
C12A C13A 1_555 1_555
C14A C15A 1_555 1_555
C17A C18A 1_555 1_555
C19A C20A 1_555 1_555

#END
