
#######################################################################
#
#                 Cambridge Crystallographic Data Centre
#                                CCDC 
#
#######################################################################
#
# If this CIF has been generated from an entry in the Cambridge 
# Structural Database, then it will include bibliographic, chemical, 
# crystal, experimental, refinement or atomic coordinate data resulting 
# from the CCDC's data processing and validation procedures.
#
#######################################################################

data_YOQPIF
_symmetry_cell_setting           monoclinic
_symmetry_space_group_name_H-M   'P 21/n'
_symmetry_Int_Tables_number      14
_space_group_name_Hall           '-P 2yn'
loop_
_symmetry_equiv_pos_site_id
_symmetry_equiv_pos_as_xyz
1 x,y,z
2 1/2-x,1/2+y,1/2-z
3 -x,-y,-z
4 1/2+x,1/2-y,1/2+z
_cell_length_a                   11.5235(11)
_cell_length_b                   15.7807(15)
_cell_length_c                   22.220(2)
_cell_angle_alpha                90
_cell_angle_beta                 94.678(2)
_cell_angle_gamma                90
_cell_volume                     4027.22
loop_
_atom_site_label
_atom_site_type_symbol
_atom_site_fract_x
_atom_site_fract_y
_atom_site_fract_z
C1 C 1.3145(5) 0.5200(4) -0.0552(3)
C2 C 1.3286(4) 0.5030(3) 0.0119(2)
C3 C 1.3805(5) 0.4288(4) 0.0341(3)
H1 H 1.4101 0.3903 0.0076
C4 C 1.3885(5) 0.4119(4) 0.0943(2)
H2 H 1.4240 0.3621 0.1087
C5 C 1.3451(4) 0.4673(4) 0.1338(2)
C6 C 1.2963(5) 0.5415(4) 0.1128(3)
H3 H 1.2677 0.5801 0.1395
C7 C 1.2894(5) 0.5594(3) 0.0509(3)
H4 H 1.2577 0.6106 0.0367
C8 C 1.2758(4) 0.4607(3) 0.2327(2)
C9 C 1.1558(4) 0.4589(3) 0.2166(2)
H5 H 1.1285 0.4533 0.1762
C10 C 1.0777(4) 0.4653(3) 0.2607(2)
C11 C 1.1186(5) 0.4750(3) 0.3194(2)
H6 H 1.0662 0.4793 0.3490
C12 C 1.2381(5) 0.4786(3) 0.3363(2)
C13 C 1.3146(4) 0.4727(3) 0.2930(2)
H7 H 1.3941 0.4768 0.3039
C14 C 1.2845(6) 0.4886(4) 0.4014(3)
C15 C 0.9486(5) 0.4602(3) 0.2443(3)
C16 C 0.6882(6) 0.2554(4) 0.1887(4)
H8 H 0.7337 0.2443 0.1569
C17 C 0.6407(6) 0.1968(4) 0.2243(4)
H9 H 0.6461 0.1383 0.2202
C18 C 0.5959(5) 0.3189(4) 0.2536(3)
H10 H 0.5631 0.3620 0.2752
C19 C 0.5180(5) 0.2022(4) 0.3116(3)
H11 H 0.5402 0.2296 0.3499
H12 H 0.5356 0.1423 0.3161
C20 C 0.3889(6) 0.2133(4) 0.2963(4)
C21 C 0.3372(6) 0.1912(4) 0.2411(4)
H13 H 0.3830 0.1682 0.2127
C22 C 0.2208(6) 0.2016(4) 0.2261(4)
H14 H 0.1892 0.1868 0.1877
C23 C 0.1494(6) 0.2339(4) 0.2678(4)
C24 C 0.1988(8) 0.2574(4) 0.3228(4)
H15 H 0.1536 0.2806 0.3514
C25 C 0.3199(7) 0.2459(4) 0.3358(4)
H16 H 0.3531 0.2619 0.3737
C26 C 0.0208(6) 0.2444(4) 0.2535(4)
H17 H -0.0110 0.2756 0.2860
H18 H 0.0074 0.2778 0.2169
C27 C -0.0812(5) 0.1173(4) 0.2888(3)
H19 H -0.0729 0.1323 0.3294
C28 C -0.1247(5) 0.0505(4) 0.2076(3)
H20 H -0.1536 0.0095 0.1803
C29 C -0.0678(5) 0.1208(4) 0.1932(3)
H21 H -0.0499 0.1372 0.1548
C30 C 1.6302(5) 0.6803(3) 0.4798(3)
H22 H 1.7022 0.6548 0.4893
C31 C 1.6160(5) 0.7605(3) 0.4601(3)
H23 H 1.6739 0.7994 0.4530
C32 C 1.4405(5) 0.8493(3) 0.4301(3)
H24 H 1.3570 0.8410 0.4299
H25 H 1.4584 0.8587 0.3888
C33 C 1.4741(5) 0.9273(3) 0.4669(2)
C34 C 1.4574(5) 0.9303(3) 0.5269(3)
H26 H 1.4276 0.8833 0.5456
C35 C 1.5154(5) 0.9970(4) 0.4400(2)
H27 H 1.5255 0.9960 0.3989
C36 C 1.4505(5) 0.6990(3) 0.4671(3)
H28 H 1.3705 0.6902 0.4651
Cd1 Cd 0.72370(3) 0.45523(2) 0.176419(17)
Cd2 Cd 1.5000 0.5000 0.5000
N1 N -0.1336(4) 0.0485(3) 0.2681(2)
N2 N -0.0416(4) 0.1629(3) 0.2452(3)
N3 N 0.6574(4) 0.3322(3) 0.2081(2)
N4 N 0.5848(4) 0.2373(3) 0.2660(3)
N5 N 1.4999(4) 0.7721(3) 0.4528(2)
N6 N 1.5269(4) 0.6413(2) 0.4841(2)
O1 O 0.8805(3) 0.4629(3) 0.2835(2)
O2 O 0.9153(3) 0.4540(3) 0.18959(17)
O3 O 1.3611(3) 0.4483(3) 0.19406(16)
O4 O 1.3905(3) 0.4919(3) 0.41183(17)
O5 O 1.2112(4) 0.4918(3) 0.4403(2)
O6 O 1.3201(3) 0.4577(2) -0.09210(16)
O7 O 1.2915(3) 0.5926(2) -0.07485(16)
O8 O 1.6731(3) 0.4769(2) 0.45403(16)
H29 H 1.7478 0.4808 0.4760
H30 H 1.6967 0.4374 0.4331
C30B C 1.3698(5) 1.3197(3) 0.5202(3)
H22B H 1.2978 1.3452 0.5107
C31B C 1.3840(5) 1.2395(3) 0.5399(3)
H23B H 1.3261 1.2006 0.5470
C32B C 1.5595(5) 1.1507(3) 0.5699(3)
H24B H 1.6430 1.1590 0.5701
H25B H 1.5416 1.1413 0.6112
C33B C 1.5259(5) 1.0727(3) 0.5331(2)
C34B C 1.5426(5) 1.0697(3) 0.4731(3)
H26B H 1.5724 1.1167 0.4544
C35B C 1.4846(5) 1.0030(4) 0.5600(2)
H27B H 1.4745 1.0040 0.6011
C36B C 1.5495(5) 1.3010(3) 0.5329(3)
H28B H 1.6295 1.3098 0.5349
N5B N 1.5001(4) 1.2279(3) 0.5472(2)
N6B N 1.4731(4) 1.3587(2) 0.5159(2)
C1B C 0.6855(5) 0.4800(4) 0.0552(3)
C2B C 0.6714(4) 0.4970(3) -0.0119(2)
C3B C 0.6195(5) 0.5712(4) -0.0341(3)
H1B H 0.5899 0.6097 -0.0076
C4B C 0.6115(5) 0.5881(4) -0.0943(2)
H2B H 0.5760 0.6379 -0.1087
C5B C 0.6549(4) 0.5327(4) -0.1338(2)
C6B C 0.7037(5) 0.4585(4) -0.1128(3)
H3B H 0.7323 0.4199 -0.1395
C7B C 0.7106(5) 0.4406(3) -0.0509(3)
H4B H 0.7423 0.3894 -0.0367
C8B C 0.7242(4) 0.5393(3) -0.2327(2)
C9B C 0.8442(4) 0.5411(3) -0.2166(2)
H5B H 0.8715 0.5467 -0.1762
C10B C 0.9223(4) 0.5347(3) -0.2607(2)
C11B C 0.8814(5) 0.5250(3) -0.3194(2)
H6B H 0.9338 0.5207 -0.3490
C12B C 0.7619(5) 0.5214(3) -0.3363(2)
C13B C 0.6854(4) 0.5273(3) -0.2930(2)
H7B H 0.6059 0.5232 -0.3039
C14B C 0.7155(6) 0.5114(4) -0.4014(3)
C15B C 1.0514(5) 0.5398(3) -0.2443(3)
C16B C 1.3118(6) 0.7446(4) -0.1887(4)
H8B H 1.2663 0.7557 -0.1569
C17B C 1.3593(6) 0.8032(4) -0.2243(4)
H9B H 1.3539 0.8617 -0.2202
C18B C 1.4041(5) 0.6811(4) -0.2536(3)
H10B H 1.4369 0.6380 -0.2752
C19B C 1.4820(5) 0.7978(4) -0.3116(3)
H11B H 1.4598 0.7704 -0.3499
H12B H 1.4644 0.8577 -0.3161
C20B C 1.6111(6) 0.7867(4) -0.2963(4)
C21B C 1.6628(6) 0.8088(4) -0.2411(4)
H13B H 1.6170 0.8318 -0.2127
C22B C 1.7792(6) 0.7984(4) -0.2261(4)
H14B H 1.8108 0.8132 -0.1877
C23B C 1.8506(6) 0.7661(4) -0.2678(4)
C24B C 1.8012(8) 0.7426(4) -0.3228(4)
H15B H 1.8464 0.7194 -0.3514
C25B C 1.6801(7) 0.7541(4) -0.3358(4)
H16B H 1.6469 0.7381 -0.3737
C26B C 1.9792(6) 0.7556(4) -0.2535(4)
H17B H 2.0110 0.7244 -0.2860
H18B H 1.9926 0.7222 -0.2169
C27B C 2.0812(5) 0.8827(4) -0.2888(3)
H19B H 2.0729 0.8677 -0.3294
C28B C 2.1247(5) 0.9495(4) -0.2076(3)
H20B H 2.1536 0.9905 -0.1803
C29B C 2.0678(5) 0.8792(4) -0.1932(3)
H21B H 2.0499 0.8628 -0.1548
Cd1B Cd 1.27630(3) 0.54477(2) -0.176419(17)
N1B N 2.1336(4) 0.9515(3) -0.2681(2)
N2B N 2.0416(4) 0.8371(3) -0.2452(3)
N3B N 1.3426(4) 0.6678(3) -0.2081(2)
N4B N 1.4152(4) 0.7627(3) -0.2660(3)
O1B O 1.1195(3) 0.5371(3) -0.2835(2)
O2B O 1.0847(3) 0.5460(3) -0.18959(17)
O3B O 0.6389(3) 0.5517(3) -0.19406(16)
O4B O 0.6095(3) 0.5081(3) -0.41183(17)
O5B O 0.7888(4) 0.5082(3) -0.4403(2)
O6B O 0.6799(3) 0.5423(2) 0.09210(16)
O7B O 0.7085(3) 0.4074(2) 0.07485(16)
O8B O 1.3269(3) 0.5231(2) 0.54597(16)
H29B H 1.2522 0.5192 0.5240
H30B H 1.3033 0.5626 0.5669
Cd1A Cd -0.22370(3) -0.04477(2) 0.323581(17)
Cd1C Cd 2.22370(3) 1.04477(2) -0.323581(17)
Cd2_2 Cd 0.5000 0.5000 -0.5000
Cd2_3 Cd 1.5000 1.5000 0.5000
N1A N 0.6336(4) 0.5485(3) 0.2319(2)
N1C N 1.3664(4) 0.4515(3) -0.2319(2)
N6B_2 N 1.4731(4) 0.3587(2) 0.5159(2)
O4B_2 O 1.6095(3) 0.5081(3) 0.58817(17)
loop_
_geom_bond_atom_site_label_1
_geom_bond_atom_site_label_2
_geom_bond_site_symmetry_1
_geom_bond_site_symmetry_2
C1 C2 1_555 1_555
C2 C3 1_555 1_555
C3 H1 1_555 1_555
C4 C3 1_555 1_555
H2 C4 1_555 1_555
C5 C4 1_555 1_555
C6 C5 1_555 1_555
H3 C6 1_555 1_555
C7 C2 1_555 1_555
H4 C7 1_555 1_555
C8 C9 1_555 1_555
C9 H5 1_555 1_555
C10 C9 1_555 1_555
C11 C10 1_555 1_555
H6 C11 1_555 1_555
C12 C11 1_555 1_555
C13 C8 1_555 1_555
H7 C13 1_555 1_555
C14 C12 1_555 1_555
C15 C10 1_555 1_555
C16 H8 1_555 1_555
C17 C16 1_555 1_555
H9 C17 1_555 1_555
C18 H10 1_555 1_555
C19 H11 1_555 1_555
H12 C19 1_555 1_555
C20 C19 1_555 1_555
C21 C20 1_555 1_555
H13 C21 1_555 1_555
C22 C21 1_555 1_555
H14 C22 1_555 1_555
C23 C22 1_555 1_555
C24 C23 1_555 1_555
H15 C24 1_555 1_555
C25 C20 1_555 1_555
H16 C25 1_555 1_555
C26 C23 1_555 1_555
H17 C26 1_555 1_555
H18 C26 1_555 1_555
C27 H19 1_555 1_555
C28 H20 1_555 1_555
C29 C28 1_555 1_555
H21 C29 1_555 1_555
C30 H22 1_555 1_555
C31 C30 1_555 1_555
H23 C31 1_555 1_555
C32 H24 1_555 1_555
H25 C32 1_555 1_555
C33 C32 1_555 1_555
C34 C33 1_555 1_555
H26 C34 1_555 1_555
C35 C33 1_555 1_555
H27 C35 1_555 1_555
C36 H28 1_555 1_555
Cd1 N3 1_555 1_555
Cd2 N6 1_555 1_555
N1 C27 1_555 1_555
N2 C26 1_555 1_555
N3 C16 1_555 1_555
N4 C17 1_555 1_555
N5 C31 1_555 1_555
N6 C30 1_555 1_555
O1 C15 1_555 1_555
O2 C15 1_555 1_555
O3 C5 1_555 1_555
O4 C14 1_555 1_555
O5 C14 1_555 1_555
O6 C1 1_555 1_555
O7 C1 1_555 1_555
O8 Cd2 1_555 1_555
H29 O8 1_555 1_555
H30 O8 1_555 1_555
C30B H22B 1_555 1_555
C31B C30B 1_555 1_555
H23B C31B 1_555 1_555
C32B H24B 1_555 1_555
H25B C32B 1_555 1_555
C33B C32B 1_555 1_555
C34B C35 1_555 1_555
H26B C34B 1_555 1_555
C35B C34 1_555 1_555
H27B C35B 1_555 1_555
C36B H28B 1_555 1_555
N5B C31B 1_555 1_555
N6B C30B 1_555 1_555
C1B C2B 1_555 1_555
C2B C3B 1_555 1_555
C3B H1B 1_555 1_555
C4B C3B 1_555 1_555
H2B C4B 1_555 1_555
C5B C4B 1_555 1_555
C6B C5B 1_555 1_555
H3B C6B 1_555 1_555
C7B C2B 1_555 1_555
H4B C7B 1_555 1_555
C8B C9B 1_555 1_555
C9B H5B 1_555 1_555
C10B C9B 1_555 1_555
C11B C10B 1_555 1_555
H6B C11B 1_555 1_555
C12B C11B 1_555 1_555
C13B C8B 1_555 1_555
H7B C13B 1_555 1_555
C14B C12B 1_555 1_555
C15B C10B 1_555 1_555
C16B H8B 1_555 1_555
C17B C16B 1_555 1_555
H9B C17B 1_555 1_555
C18B H10B 1_555 1_555
C19B H11B 1_555 1_555
H12B C19B 1_555 1_555
C20B C19B 1_555 1_555
C21B C20B 1_555 1_555
H13B C21B 1_555 1_555
C22B C21B 1_555 1_555
H14B C22B 1_555 1_555
C23B C22B 1_555 1_555
C24B C23B 1_555 1_555
H15B C24B 1_555 1_555
C25B C20B 1_555 1_555
H16B C25B 1_555 1_555
C26B C23B 1_555 1_555
H17B C26B 1_555 1_555
H18B C26B 1_555 1_555
C27B H19B 1_555 1_555
C28B H20B 1_555 1_555
C29B C28B 1_555 1_555
H21B C29B 1_555 1_555
Cd1B O6 1_555 1_555
N1B C27B 1_555 1_555
N2B C26B 1_555 1_555
N3B C16B 1_555 1_555
N4B C17B 1_555 1_555
O1B C15B 1_555 1_555
O2B C15B 1_555 1_555
O3B C5B 1_555 1_555
O4B C14B 1_555 1_555
O5B C14B 1_555 1_555
O6B Cd1 1_555 1_555
O7B Cd1 1_555 1_555
O8B Cd2 1_555 1_555
H29B O8B 1_555 1_555
H30B O8B 1_555 1_555
Cd1A N1 1_555 1_555
Cd1C N1B 1_555 1_555
Cd2_2 O4B 1_555 1_555
Cd2_3 N6B 1_555 1_555
N1A Cd1 1_555 1_555
N1C Cd1B 1_555 1_555
N6B_2 Cd2 1_555 1_555
O4B_2 Cd2 1_555 1_555
C6 C7 1_555 1_555
C8 O3 1_555 1_555
C12 C13 1_555 1_555
C18 N3 1_555 1_555
C18 N4 1_555 1_555
C19 N4 1_555 1_555
C24 C25 1_555 1_555
C27 N2 1_555 1_555
C28 N1 1_555 1_555
C29 N2 1_555 1_555
C32 N5 1_555 1_555
C36 N5 1_555 1_555
C36 N6 1_555 1_555
Cd1 O2 1_555 1_555
Cd2 O4 1_555 1_555
O7 Cd1B 1_555 1_555
C32B N5B 1_555 1_555
C33B C34B 1_555 1_555
C33B C35B 1_555 1_555
C36B N5B 1_555 1_555
C36B N6B 1_555 1_555
C1B O6B 1_555 1_555
C1B O7B 1_555 1_555
C6B C7B 1_555 1_555
C8B O3B 1_555 1_555
C12B C13B 1_555 1_555
C18B N3B 1_555 1_555
C18B N4B 1_555 1_555
C19B N4B 1_555 1_555
C24B C25B 1_555 1_555
C27B N2B 1_555 1_555
C28B N1B 1_555 1_555
C29B N2B 1_555 1_555
Cd1B N3B 1_555 1_555
Cd1B O2B 1_555 1_555

#END
