
#######################################################################
#
#                 Cambridge Crystallographic Data Centre
#                                CCDC 
#
#######################################################################
#
# If this CIF has been generated from an entry in the Cambridge 
# Structural Database, then it will include bibliographic, chemical, 
# crystal, experimental, refinement or atomic coordinate data resulting 
# from the CCDC's data processing and validation procedures.
#
#######################################################################

data_YOQTIJ
_symmetry_cell_setting           monoclinic
_symmetry_space_group_name_H-M   'C 2/c'
_symmetry_Int_Tables_number      15
_space_group_name_Hall           '-C 2yn'
loop_
_symmetry_equiv_pos_site_id
_symmetry_equiv_pos_as_xyz
1 x,y,z
2 -x,y,1/2-z
3 1/2+x,1/2+y,z
4 1/2-x,1/2+y,1/2-z
5 -x,-y,-z
6 x,-y,1/2+z
7 1/2-x,1/2-y,-z
8 1/2+x,1/2-y,1/2+z
_cell_length_a                   31.550(2)
_cell_length_b                   9.3123(6)
_cell_length_c                   9.4941(6)
_cell_angle_alpha                90
_cell_angle_beta                 97.7650(10)
_cell_angle_gamma                90
_cell_volume                     2763.82
loop_
_atom_site_label
_atom_site_type_symbol
_atom_site_fract_x
_atom_site_fract_y
_atom_site_fract_z
Co1 Co 0.0000 0.04485(7) 0.2500
O1 O 0.22034(11) 0.1096(5) 0.1691(4)
O2 O -0.01306(7) -0.1074(3) 0.0907(2)
O3 O 0.01351(8) -0.2030(3) -0.0956(2)
N1 N 0.22622(13) 0.1668(8) 0.4006(6)
N2 N 0.06881(10) 0.0618(3) 0.2462(3)
C1 C 0.27313(18) 0.1683(12) 0.4157(9)
H1 H 0.2839 0.0845 0.4740
H2 H 0.2820 0.1556 0.3203
C2 C 0.12782(14) 0.2012(5) 0.1893(5)
H3 H 0.1377 0.2798 0.1388
C3 C 0.14034(14) 0.0005(6) 0.3439(5)
H4 H 0.1589 -0.0604 0.4041
C4 C 0.20881(19) 0.2191(11) 0.5282(9)
H5 H 0.1779 0.2391 0.5021
H6 H 0.2116 0.1416 0.6002
C5 C 0.08453(14) 0.1728(5) 0.1807(4)
H7 H 0.0650 0.2353 0.1256
C6 C 0.09437(15) -0.4515(4) 0.3229(5)
H8 H 0.1134 -0.5048 0.3895
C7 C 0.09674(13) -0.0216(4) 0.3260(5)
H9 H 0.0860 -0.1010 0.3732
C8 C 0.05153(13) -0.4455(4) 0.3372(4)
H10 H 0.0411 -0.4972 0.4116
C9 C 0.11001(12) -0.3807(5) 0.2126(4)
H11 H 0.1395 -0.3862 0.2029
C10 C 0.20386(15) 0.1342(5) 0.2767(6)
C11 C 0.15657(13) 0.1140(5) 0.2720(5)
C12 C 0.08246(12) -0.3022(4) 0.1169(4)
H12 H 0.0929 -0.2558 0.0395
C13 C 0.03946(11) -0.2905(4) 0.1331(3)
C14 C 0.02328(11) -0.3639(4) 0.2428(4)
C15 C 0.01111(11) -0.1929(4) 0.0355(3)
O1F O 0.27966(11) 0.3904(5) 0.8309(4)
N1F N 0.27378(13) 0.3332(8) 0.5994(6)
N2F N 0.43119(10) 0.4382(3) 0.7538(3)
C1F C 0.22687(18) 0.3317(12) 0.5843(9)
H1F H 0.2161 0.4155 0.5260
H2F H 0.2180 0.3444 0.6797
C2F C 0.37218(14) 0.2988(5) 0.8107(5)
H3F H 0.3623 0.2202 0.8612
C3F C 0.35966(14) 0.4995(6) 0.6561(5)
H4F H 0.3411 0.5604 0.5959
C4F C 0.29119(19) 0.2809(11) 0.4718(9)
H5F H 0.3221 0.2609 0.4979
H6F H 0.2884 0.3584 0.3998
C5F C 0.41547(14) 0.3272(5) 0.8193(4)
H7F H 0.4350 0.2647 0.8744
C7F C 0.40326(13) 0.5216(4) 0.6740(5)
H9F H 0.4140 0.6010 0.6268
C10F C 0.29614(15) 0.3658(5) 0.7233(6)
C11F C 0.34343(13) 0.3860(5) 0.7280(5)
O2A O 0.01306(7) -0.1074(3) 0.4093(2)
O3A O -0.01351(8) -0.2030(3) 0.5956(2)
C6A C -0.09437(15) -0.4515(4) 0.1771(5)
H8A H -0.1134 -0.5048 0.1105
C8A C -0.05153(13) -0.4455(4) 0.1628(4)
H10A H -0.0411 -0.4972 0.0884
C9A C -0.11001(12) -0.3807(5) 0.2874(4)
H11A H -0.1395 -0.3862 0.2971
C12A C -0.08246(12) -0.3022(4) 0.3831(4)
H12A H -0.0929 -0.2558 0.4605
C13A C -0.03946(11) -0.2905(4) 0.3669(3)
C14A C -0.02328(11) -0.3639(4) 0.2572(4)
C15A C -0.01111(11) -0.1929(4) 0.4645(3)
Co1D Co 0.0000 -0.04485(7) -0.2500
Co1D_2 Co 0.0000 -0.04485(7) 0.7500
Co1F Co 0.5000 0.45515(7) 0.7500
O3D O -0.01351(8) 0.2030(3) 0.0956(2)
O3E O 0.01351(8) 0.2030(3) 0.4044(2)
N2A N -0.06881(10) 0.0618(3) 0.2538(3)
O4 O 0.2095(3) 0.296(2) -0.0478(14)
loop_
_geom_bond_atom_site_label_1
_geom_bond_atom_site_label_2
_geom_bond_site_symmetry_1
_geom_bond_site_symmetry_2
Co1 O2 1_555 1_555
O1 C10 1_555 1_555
O2 C15 1_555 1_555
O3 C15 1_555 1_555
N1 C1 1_555 1_555
N2 Co1 1_555 1_555
C1 H1 1_555 1_555
H2 C1 1_555 1_555
C2 H3 1_555 1_555
C3 H4 1_555 1_555
C4 N1 1_555 1_555
H5 C4 1_555 1_555
H6 C4 1_555 1_555
C5 N2 1_555 1_555
H7 C5 1_555 1_555
C6 H8 1_555 1_555
C7 N2 1_555 1_555
H9 C7 1_555 1_555
C8 C6 1_555 1_555
H10 C8 1_555 1_555
C9 C6 1_555 1_555
H11 C9 1_555 1_555
C10 N1 1_555 1_555
C11 C2 1_555 1_555
C12 C9 1_555 1_555
H12 C12 1_555 1_555
C13 C12 1_555 1_555
C14 C8 1_555 1_555
C15 C13 1_555 1_555
O1F C10F 1_555 1_555
N1F C1F 1_555 1_555
N2F C5F 1_555 1_555
C1F C4 1_555 1_555
H1F C1F 1_555 1_555
H2F C1F 1_555 1_555
C2F H3F 1_555 1_555
C3F H4F 1_555 1_555
C4F C1 1_555 1_555
H5F C4F 1_555 1_555
H6F C4F 1_555 1_555
C5F C2F 1_555 1_555
H7F C5F 1_555 1_555
C7F N2F 1_555 1_555
H9F C7F 1_555 1_555
C10F N1F 1_555 1_555
C11F C2F 1_555 1_555
O2A Co1 1_555 1_555
O3A C15A 1_555 1_555
C6A H8A 1_555 1_555
C8A C6A 1_555 1_555
H10A C8A 1_555 1_555
C9A C6A 1_555 1_555
H11A C9A 1_555 1_555
C12A C9A 1_555 1_555
H12A C12A 1_555 1_555
C13A C12A 1_555 1_555
C14A C14 1_555 1_555
C15A O2A 1_555 1_555
Co1D O3 1_555 1_555
Co1D_2 O3A 1_555 1_555
Co1F N2F 1_555 1_555
O3D Co1 1_555 1_555
O3E Co1 1_555 1_555
N2A Co1 1_555 1_555
C2 C5 1_555 1_555
C3 C7 1_555 1_555
C3 C11 1_555 1_555
C10 C11 1_555 1_555
C13 C14 1_555 1_555
N1F C4F 1_555 1_555
C3F C7F 1_555 1_555
C3F C11F 1_555 1_555
C10F C11F 1_555 1_555
C8A C14A 1_555 1_555
C13A C14A 1_555 1_555
C13A C15A 1_555 1_555

#END
