
#######################################################################
#
#                 Cambridge Crystallographic Data Centre
#                                CCDC 
#
#######################################################################
#
# If this CIF has been generated from an entry in the Cambridge 
# Structural Database, then it will include bibliographic, chemical, 
# crystal, experimental, refinement or atomic coordinate data resulting 
# from the CCDC's data processing and validation procedures.
#
#######################################################################

data_YOQYIO
_symmetry_cell_setting           monoclinic
_symmetry_space_group_name_H-M   'C 2/c'
_symmetry_Int_Tables_number      15
_space_group_name_Hall           '-C 2yn'
loop_
_symmetry_equiv_pos_site_id
_symmetry_equiv_pos_as_xyz
1 x,y,z
2 -x,y,1/2-z
3 1/2+x,1/2+y,z
4 1/2-x,1/2+y,1/2-z
5 -x,-y,-z
6 x,-y,1/2+z
7 1/2-x,1/2-y,-z
8 1/2+x,1/2-y,1/2+z
_cell_length_a                   18.7986(3)
_cell_length_b                   3.84620(10)
_cell_length_c                   11.4314(2)
_cell_angle_alpha                90
_cell_angle_beta                 96.7610(10)
_cell_angle_gamma                90
_cell_volume                     820.779
loop_
_atom_site_label
_atom_site_type_symbol
_atom_site_fract_x
_atom_site_fract_y
_atom_site_fract_z
Rb1 Rb 1.0000 1.08910(6) 0.7500
O1 O 0.90712(6) 0.6159(3) 0.84434(10)
C1 C 0.81934(6) 0.6794(3) 0.97593(11)
O2 O 0.94031(6) 0.5252(5) 1.03445(11)
C2 C 0.89349(6) 0.6032(4) 0.94691(12)
C3 C 0.79994(7) 0.6117(4) 1.08756(12)
H1 H 0.8332 0.5201 1.1461
C4 C 0.76949(6) 0.8179(4) 0.88897(11)
H2 H 0.7827 0.8638 0.8146
O1F O 0.59288(6) 0.8841(3) 1.15566(10)
C1F C 0.68066(6) 0.8206(3) 1.02407(11)
O2F O 0.55969(6) 0.9748(5) 0.96555(11)
C2F C 0.60651(6) 0.8968(4) 1.05309(12)
C3F C 0.70006(7) 0.8883(4) 0.91244(12)
H1F H 0.6668 0.9799 0.8539
C4F C 0.73051(6) 0.6821(4) 1.11103(11)
H2F H 0.7173 0.6362 1.1854
Rb1_2 Rb 1.0000 0.08910(6) 0.7500
Rb1B Rb 0.5000 0.58910(6) 0.7500
Rb1D Rb 1.0000 0.91090(6) 1.2500
Rb1F Rb 0.5000 0.41090(6) 1.2500
Rb1F_2 Rb 0.5000 1.41090(6) 1.2500
O1_2 O 0.90712(6) 1.6159(3) 0.84434(10)
O1A O 1.09288(6) 0.6159(3) 0.65566(10)
O1A_2 O 1.09288(6) 1.6159(3) 0.65566(10)
O2D O 1.05969(6) 1.4748(5) 0.96555(11)
O2E O 0.94031(6) 1.4748(5) 0.53445(11)
loop_
_geom_bond_atom_site_label_1
_geom_bond_atom_site_label_2
_geom_bond_site_symmetry_1
_geom_bond_site_symmetry_2
Rb1 O1 1_555 1_555
O1 C2 1_555 1_555
C1 C2 1_555 1_555
O2 C2 1_555 1_555
C3 C1 1_555 1_555
H1 C3 1_555 1_555
C4 C1 1_555 1_555
H2 C4 1_555 1_555
O1F C2F 1_555 1_555
C1F C2F 1_555 1_555
O2F C2F 1_555 1_555
C3F C4 1_555 1_555
H1F C3F 1_555 1_555
C4F C3 1_555 1_555
H2F C4F 1_555 1_555
Rb1_2 O1 1_555 1_555
Rb1B O2F 1_555 1_555
Rb1D O2 1_555 1_555
Rb1F O1F 1_555 1_555
Rb1F_2 O1F 1_555 1_555
O1_2 Rb1 1_555 1_555
O1A Rb1 1_555 1_555
O1A_2 Rb1 1_555 1_555
O2D Rb1 1_555 1_555
O2E Rb1 1_555 1_555
C1F C3F 1_555 1_555
C1F C4F 1_555 1_555
Rb1_2 O1A 1_555 1_555

#END
