
#######################################################################
#
#                 Cambridge Crystallographic Data Centre
#                                CCDC 
#
#######################################################################
#
# If this CIF has been generated from an entry in the Cambridge 
# Structural Database, then it will include bibliographic, chemical, 
# crystal, experimental, refinement or atomic coordinate data resulting 
# from the CCDC's data processing and validation procedures.
#
#######################################################################

data_YORKAS
_symmetry_cell_setting           triclinic
_symmetry_space_group_name_H-M   'P -1'
_symmetry_Int_Tables_number      2
_space_group_name_Hall           '-P 1'
loop_
_symmetry_equiv_pos_site_id
_symmetry_equiv_pos_as_xyz
1 x,y,z
2 -x,-y,-z
_cell_length_a                   8.807(4)
_cell_length_b                   11.139(6)
_cell_length_c                   11.291(5)
_cell_angle_alpha                75.337(7)
_cell_angle_beta                 73.584(5)
_cell_angle_gamma                66.795(5)
_cell_volume                     963.841
loop_
_atom_site_label
_atom_site_type_symbol
_atom_site_fract_x
_atom_site_fract_y
_atom_site_fract_z
Cu1 Cu 0.5000 0.5000 0.0000
Cu2 Cu 0.5000 1.0000 0.0000
S1 S 0.9995(3) 0.27876(19) 0.49718(19)
O1 O 0.3322(5) 0.6888(4) 0.0203(4)
O2 O 0.4706(5) 0.8299(4) -0.0234(5)
O3 O 0.3046(6) 1.0127(5) 0.1580(4)
O4 O 0.0869(7) 0.9874(6) 0.3034(5)
O5 O 0.3124(6) 0.4332(5) 0.1283(5)
H1 H 0.2745 0.4736 0.1877
H2 H 0.3568 0.3525 0.1499
N1 N 0.6204(7) 0.4974(5) 0.1463(5)
N2 N 0.7722(7) 0.4970(6) 0.5524(5)
N3 N 0.8605(7) 0.4470(6) 0.6479(5)
N4 N 1.3356(7) 0.1271(6) 0.8714(5)
C1 C 0.5404(8) 0.5699(7) 0.2393(6)
H9 H 0.4370 0.6369 0.2328
C2 C 0.6054(8) 0.5493(7) 0.3453(6)
H10 H 0.5463 0.6006 0.4083
C3 C 0.7603(8) 0.4503(6) 0.3541(6)
C4 C 0.8479(9) 0.3813(7) 0.2553(7)
H11 H 0.9548 0.3179 0.2568
C5 C 0.7726(8) 0.4088(7) 0.1530(7)
H12 H 0.8324 0.3624 0.0865
C6 C 0.8310(9) 0.4205(7) 0.4677(6)
C7 C 0.9835(9) 0.3334(7) 0.6304(6)
C8 C 1.1058(9) 0.2619(7) 0.7142(7)
C9 C 1.0814(9) 0.3016(8) 0.8284(7)
H13 H 0.9876 0.3731 0.8540
C10 C 1.2012(8) 0.2312(7) 0.9028(7)
H14 H 1.1861 0.2586 0.9779
C11 C 1.2509(10) 0.1549(8) 0.6801(7)
H15 H 1.2732 0.1283 0.6034
C12 C 1.3599(9) 0.0895(8) 0.7601(7)
H16 H 1.4540 0.0168 0.7373
C13 C 0.3396(7) 0.8035(6) -0.0011(5)
C14 C 0.1661(7) 0.9122(5) 0.0003(6)
C15 C 0.0826(7) 0.9912(5) 0.0938(5)
C16 C 0.1650(8) 0.9949(6) 0.1943(6)
C17 C 0.0832(7) 0.9231(6) -0.0930(6)
H17 H 0.1401 0.8719 -0.1563
Cu1_2 Cu -0.5000 1.5000 0.0000
Cu2_2 Cu 1.5000 0.0000 1.0000
Cu2_3 Cu -0.5000 1.0000 0.0000
Cu2_4 Cu -0.5000 1.0000 -1.0000
S1A S 0.0005(3) 0.72124(19) -0.49718(19)
O1A O -0.3322(5) 1.3112(4) -0.0203(4)
O1A_2 O 0.6678(5) 0.3112(4) -0.0203(4)
O2A O -0.4706(5) 1.1701(4) 0.0234(5)
O2A_2 O 0.5294(5) 1.1701(4) 0.0234(5)
O3A O -0.3046(6) 0.9873(5) -0.1580(4)
O3A_2 O 0.6954(6) 0.9873(5) -0.1580(4)
O4A O -0.0869(7) 1.0126(6) -0.3034(5)
O5A O 0.6876(6) 0.5668(5) -0.1283(5)
H1A H 0.7255 0.5264 -0.1877
H2A H 0.6432 0.6475 -0.1499
N1A N 0.3796(7) 0.5026(5) -0.1463(5)
N2A N 0.2278(7) 0.5030(6) -0.5524(5)
N3A N 0.1395(7) 0.5530(6) -0.6479(5)
N4A N -0.3356(7) 0.8729(6) -0.8714(5)
N4_2 N 0.3356(7) 1.1271(6) -0.1286(5)
N4A_2 N 0.6644(7) 0.8729(6) 0.1286(5)
C1A C 0.4596(8) 0.4301(7) -0.2393(6)
H9A H 0.5630 0.3631 -0.2328
C2A C 0.3946(8) 0.4507(7) -0.3453(6)
H10A H 0.4537 0.3994 -0.4083
C3A C 0.2397(8) 0.5497(6) -0.3541(6)
C4A C 0.1521(9) 0.6187(7) -0.2553(7)
H11A H 0.0452 0.6821 -0.2568
C5A C 0.2274(8) 0.5912(7) -0.1530(7)
H12A H 0.1676 0.6376 -0.0865
C6A C 0.1690(9) 0.5795(7) -0.4677(6)
C7A C 0.0165(9) 0.6666(7) -0.6304(6)
C8A C -0.1058(9) 0.7381(7) -0.7142(7)
C9A C -0.0814(9) 0.6984(8) -0.8284(7)
H13A H 0.0124 0.6269 -0.8540
C10A C -0.2012(8) 0.7688(7) -0.9028(7)
H14A H -0.1861 0.7414 -0.9779
C11A C -0.2509(10) 0.8451(8) -0.6801(7)
H15A H -0.2732 0.8717 -0.6034
C12A C -0.3599(9) 0.9105(8) -0.7601(7)
H16A H -0.4540 0.9832 -0.7373
C13A C -0.3396(7) 1.1965(6) 0.0011(5)
C14A C -0.1661(7) 1.0878(5) -0.0003(6)
C15A C -0.0826(7) 1.0088(5) -0.0938(5)
C16A C -0.1650(8) 1.0051(6) -0.1943(6)
C17A C -0.0832(7) 1.0769(6) 0.0930(6)
H17A H -0.1401 1.1281 0.1563
O6 O 0.7724(8) 0.0767(7) 0.4775(6)
H3 H 0.7788 0.1044 0.5371
H4 H 0.8607 0.0626 0.4230
O7 O 0.2662(12) 0.2169(9) 0.2658(9)
H5 H 0.2299 0.1824 0.2186
H6 H 0.3580 0.2254 0.2227
O8 O 0.5127(10) 0.7702(8) 0.6199(8)
H7 H 0.5822 0.7742 0.6564
H8 H 0.4543 0.8466 0.5928
loop_
_geom_bond_atom_site_label_1
_geom_bond_atom_site_label_2
_geom_bond_site_symmetry_1
_geom_bond_site_symmetry_2
Cu1 O1 1_555 1_555
Cu2 O2 1_555 1_555
S1 C6 1_555 1_555
O1 C13 1_555 1_555
O2 C13 1_555 1_555
O3 Cu2 1_555 1_555
O4 C16 1_555 1_555
O5 Cu1 1_555 1_555
H1 O5 1_555 1_555
H2 O5 1_555 1_555
O6 H3 1_555 1_555
H4 O6 1_555 1_555
O7 H5 1_555 1_555
H6 O7 1_555 1_555
O8 H7 1_555 1_555
H8 O8 1_555 1_555
N1 Cu1 1_555 1_555
N2 N3 1_555 1_555
N3 C7 1_555 1_555
N4 C10 1_555 1_555
C1 N1 1_555 1_555
H9 C1 1_555 1_555
C2 C1 1_555 1_555
H10 C2 1_555 1_555
C3 C2 1_555 1_555
C4 C3 1_555 1_555
H11 C4 1_555 1_555
C5 N1 1_555 1_555
H12 C5 1_555 1_555
C6 N2 1_555 1_555
C7 S1 1_555 1_555
C8 C7 1_555 1_555
C9 C8 1_555 1_555
H13 C9 1_555 1_555
C10 C9 1_555 1_555
H14 C10 1_555 1_555
C11 C8 1_555 1_555
H15 C11 1_555 1_555
C12 N4 1_555 1_555
H16 C12 1_555 1_555
C13 C14 1_555 1_555
C14 C15 1_555 1_555
C15 C16 1_555 1_555
C16 O3 1_555 1_555
C17 C14 1_555 1_555
H17 C17 1_555 1_555
Cu1_2 O1A 1_555 1_555
Cu2_2 N4 1_555 1_555
Cu2_3 O2A 1_555 1_555
Cu2_4 N4A 1_555 1_555
S1A C6A 1_555 1_555
O1A C13A 1_555 1_555
O1A_2 Cu1 1_555 1_555
O2A C13A 1_555 1_555
O2A_2 Cu2 1_555 1_555
O3A Cu2_3 1_555 1_555
O3A_2 Cu2 1_555 1_555
O4A C16A 1_555 1_555
O5A Cu1 1_555 1_555
H1A O5A 1_555 1_555
H2A O5A 1_555 1_555
N1A Cu1 1_555 1_555
N2A N3A 1_555 1_555
N3A C7A 1_555 1_555
N4A C10A 1_555 1_555
N4_2 Cu2 1_555 1_555
N4A_2 Cu2 1_555 1_555
C1A N1A 1_555 1_555
H9A C1A 1_555 1_555
C2A C1A 1_555 1_555
H10A C2A 1_555 1_555
C3A C2A 1_555 1_555
C4A C3A 1_555 1_555
H11A C4A 1_555 1_555
C5A N1A 1_555 1_555
H12A C5A 1_555 1_555
C6A N2A 1_555 1_555
C7A S1A 1_555 1_555
C8A C7A 1_555 1_555
C9A C8A 1_555 1_555
H13A C9A 1_555 1_555
C10A C9A 1_555 1_555
H14A C10A 1_555 1_555
C11A C8A 1_555 1_555
H15A C11A 1_555 1_555
C12A N4A 1_555 1_555
H16A C12A 1_555 1_555
C13A C14A 1_555 1_555
C14A C15A 1_555 1_555
C15A C17 1_555 1_555
C16A O3A 1_555 1_555
C17A C15 1_555 1_555
H17A C17A 1_555 1_555
C3 C6 1_555 1_555
C4 C5 1_555 1_555
C11 C12 1_555 1_555
C3A C6A 1_555 1_555
C4A C5A 1_555 1_555
C11A C12A 1_555 1_555
C14A C17A 1_555 1_555
C15A C16A 1_555 1_555

#END
