
#######################################################################
#
#                 Cambridge Crystallographic Data Centre
#                                CCDC 
#
#######################################################################
#
# If this CIF has been generated from an entry in the Cambridge 
# Structural Database, then it will include bibliographic, chemical, 
# crystal, experimental, refinement or atomic coordinate data resulting 
# from the CCDC's data processing and validation procedures.
#
#######################################################################

data_YORNIE
_symmetry_cell_setting           monoclinic
_symmetry_space_group_name_H-M   'C 2/c'
_symmetry_Int_Tables_number      15
_space_group_name_Hall           '-C 2yn'
loop_
_symmetry_equiv_pos_site_id
_symmetry_equiv_pos_as_xyz
1 x,y,z
2 -x,y,1/2-z
3 1/2+x,1/2+y,z
4 1/2-x,1/2+y,1/2-z
5 -x,-y,-z
6 x,-y,1/2+z
7 1/2-x,1/2-y,-z
8 1/2+x,1/2-y,1/2+z
_cell_length_a                   25.645(8)
_cell_length_b                   11.555(4)
_cell_length_c                   7.012(2)
_cell_angle_alpha                90
_cell_angle_beta                 99.982(4)
_cell_angle_gamma                90
_cell_volume                     2046.4
loop_
_atom_site_label
_atom_site_type_symbol
_atom_site_fract_x
_atom_site_fract_y
_atom_site_fract_z
Co1 Co 0.5000 -0.12034(4) 0.7500
O1 O 0.56868(8) -0.02432(18) 0.7249(3)
N1 N 0.55116(10) -0.2848(2) 0.7251(3)
C1 C 0.52810(14) -0.3886(2) 0.7392(4)
C2 C 0.55406(15) -0.4942(3) 0.7301(4)
C3 C 0.56941(10) 0.0763(2) 0.6558(4)
C4 C 0.63139(17) -0.3856(3) 0.6990(6)
H1 H 0.6669 -0.3815 0.6871
C5 C 0.60143(13) -0.2839(3) 0.7046(5)
H2 H 0.6177 -0.2129 0.6933
C6 C 0.60781(17) -0.4891(3) 0.7113(5)
H3 H 0.6271 -0.5570 0.7074
C7 C 0.65686(14) 0.1170(3) 0.8490(5)
C8 C 0.62042(12) 0.1409(3) 0.7002(5)
C9 C 0.72300(12) 0.2734(3) 0.8157(5)
H4 H 0.7054 0.2894 0.6911
C10 C 0.70525(11) 0.1839(3) 0.9216(4)
C11 C 0.52410(18) -0.6025(3) 0.7405(5)
H5 H 0.5412 -0.6729 0.7329
C12 C 0.73324(12) 0.1614(3) 1.1048(5)
H6 H 0.7224 0.1010 1.1765
O2 O 0.53095(8) 0.12764(15) 0.5569(3)
H7 H 0.6566(18) 0.063(4) 0.907(6)
H8 H 0.6250(12) 0.200(3) 0.635(4)
O1F O 0.93132(8) 0.52432(18) 1.2751(3)
C3F C 0.93059(10) 0.4237(2) 1.3442(4)
C7F C 0.84314(14) 0.3830(3) 1.1510(5)
C8F C 0.87958(12) 0.3591(3) 1.2998(5)
C9F C 0.77700(12) 0.2266(3) 1.1843(5)
H4F H 0.7946 0.2106 1.3089
C10F C 0.79475(11) 0.3161(3) 1.0784(4)
C12F C 0.76676(12) 0.3386(3) 0.8952(5)
H6F H 0.7776 0.3990 0.8235
O2F O 0.96905(8) 0.37236(15) 1.4431(3)
H7F H 0.8434(18) 0.437(4) 1.093(6)
H8F H 0.8750(12) 0.300(3) 1.365(4)
N1A N 0.44884(10) -0.2848(2) 0.7749(3)
C1A C 0.47190(14) -0.3886(2) 0.7608(4)
C2A C 0.44594(15) -0.4942(3) 0.7699(4)
C4A C 0.36861(17) -0.3856(3) 0.8010(6)
H1A H 0.3331 -0.3815 0.8129
C5A C 0.39857(13) -0.2839(3) 0.7954(5)
H2A H 0.3823 -0.2129 0.8067
C6A C 0.39219(17) -0.4891(3) 0.7887(5)
H3A H 0.3729 -0.5570 0.7926
C11A C 0.47590(18) -0.6025(3) 0.7595(5)
H5A H 0.4588 -0.6729 0.7671
Co1B Co 1.0000 0.37966(4) 1.7500
Co1D Co 0.5000 0.12034(4) 0.2500
Co1F Co 1.0000 0.62034(4) 1.2500
O1A O 0.43132(8) -0.02432(18) 0.7751(3)
O2D O 0.46905(8) -0.12764(15) 0.4431(3)
O2E O 0.53095(8) -0.12764(15) 1.0569(3)
loop_
_geom_bond_atom_site_label_1
_geom_bond_atom_site_label_2
_geom_bond_site_symmetry_1
_geom_bond_site_symmetry_2
Co1 O1 1_555 1_555
O1 C3 1_555 1_555
N1 Co1 1_555 1_555
C1 N1 1_555 1_555
C2 C1 1_555 1_555
C3 C8 1_555 1_555
C4 H1 1_555 1_555
C5 N1 1_555 1_555
H2 C5 1_555 1_555
C6 C2 1_555 1_555
H3 C6 1_555 1_555
C7 C8 1_555 1_555
C8 H8 1_555 1_555
C9 H4 1_555 1_555
C10 C7 1_555 1_555
C11 C2 1_555 1_555
H5 C11 1_555 1_555
C12 C10 1_555 1_555
H6 C12 1_555 1_555
O2 C3 1_555 1_555
H7 C7 1_555 1_555
O1F C3F 1_555 1_555
C3F C8F 1_555 1_555
C7F C8F 1_555 1_555
C8F H8F 1_555 1_555
C9F C12 1_555 1_555
H4F C9F 1_555 1_555
C10F C7F 1_555 1_555
C12F C9 1_555 1_555
H6F C12F 1_555 1_555
O2F C3F 1_555 1_555
H7F C7F 1_555 1_555
N1A Co1 1_555 1_555
C1A C1 1_555 1_555
C2A C1A 1_555 1_555
C4A H1A 1_555 1_555
C5A N1A 1_555 1_555
H2A C5A 1_555 1_555
C6A C2A 1_555 1_555
H3A C6A 1_555 1_555
C11A C11 1_555 1_555
H5A C11A 1_555 1_555
Co1B O2F 1_555 1_555
Co1D O2 1_555 1_555
Co1F O1F 1_555 1_555
O1A Co1 1_555 1_555
O2D Co1 1_555 1_555
O2E Co1 1_555 1_555
C4 C5 1_555 1_555
C4 C6 1_555 1_555
C9 C10 1_555 1_555
C9F C10F 1_555 1_555
C10F C12F 1_555 1_555
N1A C1A 1_555 1_555
C2A C11A 1_555 1_555
C4A C5A 1_555 1_555
C4A C6A 1_555 1_555

#END
