
#######################################################################
#
#                 Cambridge Crystallographic Data Centre
#                                CCDC 
#
#######################################################################
#
# If this CIF has been generated from an entry in the Cambridge 
# Structural Database, then it will include bibliographic, chemical, 
# crystal, experimental, refinement or atomic coordinate data resulting 
# from the CCDC's data processing and validation procedures.
#
#######################################################################

data_YORZIP01
_symmetry_cell_setting           monoclinic
_symmetry_space_group_name_H-M   'P 21/c'
_symmetry_Int_Tables_number      14
_space_group_name_Hall           '-P 2ybc'
loop_
_symmetry_equiv_pos_site_id
_symmetry_equiv_pos_as_xyz
1 x,y,z
2 -x,1/2+y,1/2-z
3 -x,-y,-z
4 x,1/2-y,1/2+z
_cell_length_a                   11.824(3)
_cell_length_b                   7.2452(18)
_cell_length_c                   13.482(3)
_cell_angle_alpha                90
_cell_angle_beta                 96.175(5)
_cell_angle_gamma                90
_cell_volume                     1148.26
loop_
_atom_site_label
_atom_site_type_symbol
_atom_site_fract_x
_atom_site_fract_y
_atom_site_fract_z
Dy1 Dy 0.283975(11) 0.284980(18) 0.705184(8)
O1 O 0.46852(18) 0.4272(3) 0.74755(13)
O2 O 0.58927(17) 0.5844(3) 0.85600(13)
O3 O 0.34558(18) 1.0603(3) 1.05292(13)
O4 O 0.24972(18) 0.8876(3) 1.15069(13)
O5 O 0.11072(18) 0.3353(3) 0.77240(14)
O6 O 0.00567(18) 0.4702(3) 0.88154(14)
O7 O 0.37661(19) 0.1263(3) 0.85276(15)
H1 H 0.426(3) 0.055(5) 0.834(2)
H2 H 0.362(3) 0.119(5) 0.910(2)
O8 O 0.1945(2) -0.0182(3) 0.72220(19)
H3 H 0.214(4) -0.080(5) 0.716(3)
H4 H 0.128(3) -0.024(5) 0.698(2)
O9 O 0.1370(2) 0.2547(3) 0.56815(17)
H5 H 0.093(4) 0.200(5) 0.576(3)
H6 H 0.126(3) 0.322(5) 0.521(3)
N1 N 0.2967(2) 0.4917(3) 0.85093(15)
C1 C 0.3940(3) 0.5762(4) 0.88255(19)
C2 C 0.4019(3) 0.7108(4) 0.9561(2)
H7 H 0.4701 0.7714 0.9751
C3 C 0.3030(3) 0.7523(4) 1.0010(2)
C4 C 0.2040(3) 0.6566(4) 0.97196(19)
H8 H 0.1391 0.6758 1.0039
C5 C 0.2032(3) 0.5315(4) 0.89425(19)
C6 C 0.4928(3) 0.5244(4) 0.82517(19)
C7 C 0.3003(3) 0.9086(4) 1.07333(19)
C8 C 0.0975(3) 0.4378(4) 0.84661(19)
Dy1A Dy 0.716025(11) 0.784980(18) 0.794816(8)
Dy1C Dy 0.283975(11) 1.215020(18) 1.205184(8)
O2A O 0.41073(17) 0.0844(3) 0.64400(13)
O3C O 0.34558(18) 0.4397(3) 0.55292(13)
O4C O 0.24972(18) 0.6124(3) 0.65069(13)
O10 O 0.0797(2) 0.4856(3) 0.41099(17)
H9 H 0.108(3) 0.481(5) 0.355(2)
H10 H 0.027(4) 0.516(6) 0.392(3)
loop_
_geom_bond_atom_site_label_1
_geom_bond_atom_site_label_2
_geom_bond_site_symmetry_1
_geom_bond_site_symmetry_2
Dy1 O1 1_555 1_555
O1 C6 1_555 1_555
O2 C6 1_555 1_555
O3 C7 1_555 1_555
O4 C7 1_555 1_555
O5 Dy1 1_555 1_555
O6 C8 1_555 1_555
O7 Dy1 1_555 1_555
H1 O7 1_555 1_555
H2 O7 1_555 1_555
O8 Dy1 1_555 1_555
H3 O8 1_555 1_555
H4 O8 1_555 1_555
O9 Dy1 1_555 1_555
H5 O9 1_555 1_555
H6 O9 1_555 1_555
N1 Dy1 1_555 1_555
C1 N1 1_555 1_555
C2 C1 1_555 1_555
H7 C2 1_555 1_555
C3 C2 1_555 1_555
C4 C3 1_555 1_555
H8 C4 1_555 1_555
C5 N1 1_555 1_555
C6 C1 1_555 1_555
C7 C3 1_555 1_555
C8 O5 1_555 1_555
O10 H9 1_555 1_555
H10 O10 1_555 1_555
Dy1A O2 1_555 1_555
Dy1C O3 1_555 1_555
O2A Dy1 1_555 1_555
O3C Dy1 1_555 1_555
O4C Dy1 1_555 1_555
O4 Dy1C 1_555 1_555
C4 C5 1_555 1_555
C5 C8 1_555 1_555

#END
