
#######################################################################
#
#                 Cambridge Crystallographic Data Centre
#                                CCDC 
#
#######################################################################
#
# If this CIF has been generated from an entry in the Cambridge 
# Structural Database, then it will include bibliographic, chemical, 
# crystal, experimental, refinement or atomic coordinate data resulting 
# from the CCDC's data processing and validation procedures.
#
#######################################################################

data_YOSBOY
_symmetry_cell_setting           triclinic
_symmetry_space_group_name_H-M   'P -1'
_symmetry_Int_Tables_number      2
_space_group_name_Hall           '-P 1'
loop_
_symmetry_equiv_pos_site_id
_symmetry_equiv_pos_as_xyz
1 x,y,z
2 -x,-y,-z
_cell_length_a                   6.066(3)
_cell_length_b                   10.156(5)
_cell_length_c                   11.311(6)
_cell_angle_alpha                105.86(2)
_cell_angle_beta                 101.018(18)
_cell_angle_gamma                105.12(2)
_cell_volume                     620.726
loop_
_atom_site_label
_atom_site_type_symbol
_atom_site_fract_x
_atom_site_fract_y
_atom_site_fract_z
Pr1 Pr 0.64787(4) 0.18608(2) -0.054452(19)
O1 O 0.9502(6) 0.2435(4) 0.1478(4)
O2 O 0.4035(7) 0.2355(4) 0.0835(4)
O3 O 0.6755(6) 0.0382(4) 0.1126(3)
O4 O 0.3688(9) 0.2554(6) -0.1805(4)
O5 O 0.8436(6) 0.0111(4) -0.1328(3)
O7 O 0.6315(7) 0.0659(4) -0.2810(4)
O8 O 0.7546(7) 0.4473(4) 0.0551(4)
O9 O 0.9930(7) 0.3313(4) -0.0949(4)
N1 N 1.1804(10) 0.1893(6) 0.5698(4)
C1 C 0.8612(8) 0.1394(5) 0.1817(4)
C2 C 0.9717(9) 0.1481(6) 0.3169(5)
C3 C 0.8985(11) 0.2248(7) 0.4131(5)
H1 H 0.7806 0.2649 0.3943
C4 C 1.0038(13) 0.2411(8) 0.5387(6)
H2 H 0.9501 0.2896 0.6036
C5 C 1.2467(11) 0.1138(6) 0.4759(5)
H3 H 1.3660 0.0756 0.4976
C6 C 1.1484(9) 0.0883(6) 0.3470(5)
C7 C 0.7689(8) 0.0009(5) -0.2484(5)
C8 C 0.9309(9) 0.5332(5) 0.0437(5)
Pr1A Pr 0.35213(4) -0.18608(2) 0.054452(19)
Pr1A_2 Pr 1.35213(4) 0.81392(2) 0.054452(19)
Pr1A_3 Pr 1.35213(4) -0.18608(2) 0.054452(19)
Pr1_2 Pr 1.64787(4) 0.18608(2) -0.054452(19)
O1A O 1.0498(6) -0.2435(4) -0.1478(4)
O2A O 1.5965(7) -0.2355(4) -0.0835(4)
O3A O 0.3245(6) -0.0382(4) -0.1126(3)
O3A_2 O 1.3245(6) -0.0382(4) -0.1126(3)
O3_2 O 1.6755(6) 0.0382(4) 0.1126(3)
O4A O 1.6312(9) -0.2554(6) 0.1805(4)
O5A O 1.1564(6) -0.0111(4) 0.1328(3)
O7A O 1.3685(7) -0.0659(4) 0.2810(4)
O8A O 1.2454(7) 0.5527(4) -0.0551(4)
O8A_2 O 1.2454(7) -0.4473(4) -0.0551(4)
O9A O 1.0070(7) 0.6687(4) 0.0949(4)
O9A_2 O 1.0070(7) -0.3313(4) 0.0949(4)
N1A N 0.8196(10) -0.1893(6) -0.5698(4)
C1A C 1.1388(8) -0.1394(5) -0.1817(4)
C2A C 1.0283(9) -0.1481(6) -0.3169(5)
C3A C 1.1015(11) -0.2248(7) -0.4131(5)
H1A H 1.2194 -0.2649 -0.3943
C4A C 0.9962(13) -0.2411(8) -0.5387(6)
H2A H 1.0499 -0.2896 -0.6036
C5A C 0.7533(11) -0.1138(6) -0.4759(5)
H3A H 0.6340 -0.0756 -0.4976
C6A C 0.8516(9) -0.0883(6) -0.3470(5)
C7A C 1.2311(8) -0.0009(5) 0.2484(5)
C8A C 1.0691(9) 0.4668(5) -0.0437(5)
O6 O 0.3820(19) 0.4853(10) 0.2543(11)
loop_
_geom_bond_atom_site_label_1
_geom_bond_atom_site_label_2
_geom_bond_site_symmetry_1
_geom_bond_site_symmetry_2
Pr1 O1 1_555 1_555
O1 C1 1_555 1_555
O2 Pr1 1_555 1_555
O3 Pr1 1_555 1_555
O4 Pr1 1_555 1_555
O5 Pr1 1_555 1_555
O7 Pr1 1_555 1_555
O8 Pr1 1_555 1_555
O9 Pr1 1_555 1_555
N1 C4 1_555 1_555
C1 O3 1_555 1_555
C2 C1 1_555 1_555
C3 C2 1_555 1_555
H1 C3 1_555 1_555
C4 C3 1_555 1_555
H2 C4 1_555 1_555
C5 N1 1_555 1_555
H3 C5 1_555 1_555
C6 C2 1_555 1_555
C7 O5 1_555 1_555
C8 O8 1_555 1_555
Pr1A O3 1_555 1_555
Pr1A_2 O8A 1_555 1_555
Pr1A_3 O1A 1_555 1_555
Pr1_2 O3A_2 1_555 1_555
O1A C1A 1_555 1_555
O2A Pr1A_3 1_555 1_555
O3A Pr1 1_555 1_555
O3A_2 Pr1A_3 1_555 1_555
O3_2 Pr1A_3 1_555 1_555
O4A Pr1A_3 1_555 1_555
O5A Pr1A_3 1_555 1_555
O7A Pr1A_3 1_555 1_555
O8A C8A 1_555 1_555
O8A_2 Pr1A_3 1_555 1_555
O9A C8 1_555 1_555
O9A_2 Pr1A_3 1_555 1_555
N1A C4A 1_555 1_555
C1A O3A_2 1_555 1_555
C2A C1A 1_555 1_555
C3A C2A 1_555 1_555
H1A C3A 1_555 1_555
C4A C3A 1_555 1_555
H2A C4A 1_555 1_555
C5A N1A 1_555 1_555
H3A C5A 1_555 1_555
C6A C7 1_555 1_555
C7A C6 1_555 1_555
C8A O9 1_555 1_555
O7 C7 1_555 1_555
C5 C6 1_555 1_555
C8 C8A 1_555 1_555
Pr1A O3A 1_555 1_555
Pr1A_2 O9A 1_555 1_555
Pr1_2 O3_2 1_555 1_555
O5A C7A 1_555 1_555
O7A C7A 1_555 1_555
C2A C6A 1_555 1_555
C5A C6A 1_555 1_555

#END
