
#######################################################################
#
#                 Cambridge Crystallographic Data Centre
#                                CCDC 
#
#######################################################################
#
# If this CIF has been generated from an entry in the Cambridge 
# Structural Database, then it will include bibliographic, chemical, 
# crystal, experimental, refinement or atomic coordinate data resulting 
# from the CCDC's data processing and validation procedures.
#
#######################################################################

data_YOSDOA
_symmetry_cell_setting           monoclinic
_symmetry_space_group_name_H-M   'C 2/c'
_symmetry_Int_Tables_number      15
_space_group_name_Hall           '-C 2yn'
loop_
_symmetry_equiv_pos_site_id
_symmetry_equiv_pos_as_xyz
1 x,y,z
2 -x,y,1/2-z
3 1/2+x,1/2+y,z
4 1/2-x,1/2+y,1/2-z
5 -x,-y,-z
6 x,-y,1/2+z
7 1/2-x,1/2-y,-z
8 1/2+x,1/2-y,1/2+z
_cell_length_a                   20.8064(17)
_cell_length_b                   13.7609(17)
_cell_length_c                   7.3544(7)
_cell_angle_alpha                90
_cell_angle_beta                 101.562(2)
_cell_angle_gamma                90
_cell_volume                     2062.95
loop_
_atom_site_label
_atom_site_type_symbol
_atom_site_fract_x
_atom_site_fract_y
_atom_site_fract_z
Cd1 Cd 0.0000 0.41147(2) 0.7500
N1 N -0.06139(13) -0.0828(2) 0.6277(4)
N2 N -0.05960(12) 0.26768(19) 0.6324(3)
O1 O 0.09275(10) 0.48710(17) 0.8633(3)
O2 O 0.04767(10) 0.61150(16) 0.9882(3)
C1 C -0.03081(14) 0.0014(2) 0.6906(4)
C2 C -0.03231(13) 0.1807(2) 0.6866(4)
C3 C 0.20863(15) 0.5874(2) 0.8671(5)
H1 H 0.2033 0.5269 0.8096
C4 C 0.09419(15) 0.5705(2) 0.9358(4)
C5 C -0.06329(14) 0.0926(2) 0.6301(4)
C6 C -0.03025(16) -0.1634(3) 0.6883(4)
H2 H -0.0493 -0.2227 0.6474
C7 C 0.15834(14) 0.6253(2) 0.9500(4)
C8 C -0.12551(15) 0.0963(2) 0.5126(4)
H3 H -0.1478 0.0392 0.4727
C9 C 0.22513(13) 0.7692(2) 1.0434(4)
C10 C 0.16747(14) 0.7133(2) 1.0380(4)
H4 H 0.1349 0.7372 1.0961
C11 C 0.26490(15) 0.6385(2) 0.8705(4)
H5 H 0.2974 0.6123 0.8151
C12 C -0.15283(16) 0.1843(3) 0.4578(5)
H6 H -0.1939 0.1880 0.3798
C13 C -0.11831(16) 0.2689(3) 0.5204(4)
H7 H -0.1372 0.3286 0.4821
Cd1D Cd 0.0000 0.58853(2) 1.2500
Cd1F Cd 0.5000 1.08853(2) 1.2500
Cd1B Cd 0.5000 0.91147(2) 0.7500
N1A N 0.06139(13) -0.0828(2) 0.8723(4)
N2A N 0.05960(12) 0.26768(19) 0.8676(3)
O1F O 0.40725(10) 1.01290(17) 1.1367(3)
O1A O -0.09275(10) 0.48710(17) 0.6367(3)
O2F O 0.45233(10) 0.88850(16) 1.0118(3)
O2D O -0.04767(10) 0.38850(16) 1.0118(3)
O2E O 0.04767(10) 0.38850(16) 0.4882(3)
C1A C 0.03081(14) 0.0014(2) 0.8094(4)
C2A C 0.03231(13) 0.1807(2) 0.8134(4)
C3F C 0.29137(15) 0.9126(2) 1.1329(5)
H1F H 0.2967 0.9731 1.1904
C4F C 0.40581(15) 0.9295(2) 1.0642(4)
C5A C 0.06329(14) 0.0926(2) 0.8699(4)
C6A C 0.03025(16) -0.1634(3) 0.8117(4)
H2A H 0.0493 -0.2227 0.8526
C7F C 0.34166(14) 0.8747(2) 1.0500(4)
C8A C 0.12551(15) 0.0963(2) 0.9874(4)
H3A H 0.1478 0.0392 1.0273
C9F C 0.27487(13) 0.7308(2) 0.9566(4)
C10F C 0.33253(14) 0.7867(2) 0.9620(4)
H4F H 0.3651 0.7628 0.9039
C11F C 0.23510(15) 0.8615(2) 1.1295(4)
H5F H 0.2026 0.8877 1.1849
C12A C 0.15283(16) 0.1843(3) 1.0422(5)
H6A H 0.1939 0.1880 1.1202
C13A C 0.11831(16) 0.2689(3) 0.9796(4)
H7A H 0.1372 0.3286 1.0179
loop_
_geom_bond_atom_site_label_1
_geom_bond_atom_site_label_2
_geom_bond_site_symmetry_1
_geom_bond_site_symmetry_2
Cd1 N2 1_555 1_555
N1 C1 1_555 1_555
N2 C2 1_555 1_555
O1 Cd1 1_555 1_555
O2 C4 1_555 1_555
C1 C5 1_555 1_555
C2 C5 1_555 1_555
C3 H1 1_555 1_555
C4 O1 1_555 1_555
C5 C8 1_555 1_555
C6 N1 1_555 1_555
H2 C6 1_555 1_555
C7 C3 1_555 1_555
C8 H3 1_555 1_555
C9 C10 1_555 1_555
C10 C7 1_555 1_555
H4 C10 1_555 1_555
C11 C3 1_555 1_555
H5 C11 1_555 1_555
C12 C8 1_555 1_555
H6 C12 1_555 1_555
C13 N2 1_555 1_555
H7 C13 1_555 1_555
Cd1D O2 1_555 1_555
Cd1F O1F 1_555 1_555
Cd1B O2F 1_555 1_555
N1A C1A 1_555 1_555
N2A Cd1 1_555 1_555
O1F C4F 1_555 1_555
O1A Cd1 1_555 1_555
O2F C4F 1_555 1_555
O2D Cd1 1_555 1_555
O2E Cd1 1_555 1_555
C1A C1 1_555 1_555
C2A C2 1_555 1_555
C3F H1F 1_555 1_555
C4F C7F 1_555 1_555
C5A C1A 1_555 1_555
C6A C6 1_555 1_555
H2A C6A 1_555 1_555
C7F C3F 1_555 1_555
C8A C5A 1_555 1_555
H3A C8A 1_555 1_555
C9F C9 1_555 1_555
C10F C7F 1_555 1_555
H4F C10F 1_555 1_555
C11F C9 1_555 1_555
H5F C11F 1_555 1_555
C12A C8A 1_555 1_555
H6A C12A 1_555 1_555
C13A N2A 1_555 1_555
H7A C13A 1_555 1_555
C4 C7 1_555 1_555
C11 C9F 1_555 1_555
C12 C13 1_555 1_555
N1A C6A 1_555 1_555
N2A C2A 1_555 1_555
C2A C5A 1_555 1_555
C3F C11F 1_555 1_555
C9F C10F 1_555 1_555
C12A C13A 1_555 1_555

#END
