
#######################################################################
#
#                 Cambridge Crystallographic Data Centre
#                                CCDC 
#
#######################################################################
#
# If this CIF has been generated from an entry in the Cambridge 
# Structural Database, then it will include bibliographic, chemical, 
# crystal, experimental, refinement or atomic coordinate data resulting 
# from the CCDC's data processing and validation procedures.
#
#######################################################################

data_YOSFAO
_symmetry_cell_setting           monoclinic
_symmetry_space_group_name_H-M   'P 21/n'
_symmetry_Int_Tables_number      14
_space_group_name_Hall           '-P 2yn'
loop_
_symmetry_equiv_pos_site_id
_symmetry_equiv_pos_as_xyz
1 x,y,z
2 1/2-x,1/2+y,1/2-z
3 -x,-y,-z
4 1/2+x,1/2-y,1/2+z
_cell_length_a                   9.5395(5)
_cell_length_b                   14.3539(7)
_cell_length_c                   15.7069(8)
_cell_angle_alpha                90
_cell_angle_beta                 105.643(1)
_cell_angle_gamma                90
_cell_volume                     2071.07
loop_
_atom_site_label
_atom_site_type_symbol
_atom_site_fract_x
_atom_site_fract_y
_atom_site_fract_z
Ag1 Ag 0.28841(3) 0.25800(2) 0.99565(2)
Ag2 Ag 0.62914(3) 0.24205(2) 1.00913(2)
Mn1 Mn 0.07606(6) 0.00049(3) 0.74400(3)
N1 N 0.4907(3) 0.3843(2) 0.85291(19)
N2 N 0.2535(3) 0.0424(2) 0.67557(19)
N3 N 0.1505(4) 0.1124(2) 0.8431(2)
N4 N 0.4310(3) 0.4037(2) 1.14686(19)
N5 N 0.7876(3) 0.0989(2) 1.1591(2)
N6 N -0.1207(3) -0.0287(2) 0.79962(19)
C1 C 0.3749(4) 0.3517(3) 1.0946(2)
C2 C 0.1985(4) 0.1646(3) 0.8973(2)
C3 C 0.5369(4) 0.3307(3) 0.9063(2)
C4 C 0.3705(4) 0.0934(3) 0.7156(3)
H1 H 0.3834 0.1087 0.7748
C5 C -0.1273(5) 0.0016(3) 0.8791(3)
H2 H -0.0489 0.0351 0.9135
C6 C 0.7298(4) 0.1501(3) 1.1066(2)
C7 C 0.2382(5) 0.0214(3) 0.5908(3)
H3 H 0.1576 -0.0135 0.5611
C8 C -0.2361(4) -0.0766(3) 0.7524(3)
H4 H -0.2337 -0.0976 0.6968
C9 C -0.3575(4) -0.0973(3) 0.7797(3)
C10 C 0.4724(4) 0.1244(3) 0.6752(3)
C11 C 0.3352(5) 0.0486(3) 0.5452(3)
H5 H 0.3208 0.0319 0.4862
C12 C -0.3592(5) -0.0638(3) 0.8623(3)
H6 H -0.4394 -0.0751 0.8837
C13 C -0.2441(5) -0.0146(4) 0.9122(3)
H7 H -0.2449 0.0077 0.9677
C14 C 0.4542(5) 0.1009(3) 0.5880(3)
H8 H 0.5214 0.1202 0.5584
C15 C -0.4788(5) -0.1543(3) 0.7229(3)
H9 H -0.4899 -0.1395 0.6619
H10 H -0.5678 -0.1405 0.7379
H11 H -0.4565 -0.2193 0.7326
C16 C 0.6010(6) 0.1826(4) 0.7256(4)
H12 H 0.5928 0.2444 0.7013
H13 H 0.6898 0.1546 0.7207
H14 H 0.6016 0.1857 0.7868
Mn1A Mn 0.42394(6) 0.50049(3) 0.75600(3)
Mn1C Mn 0.57606(6) 0.49951(3) 1.24400(3)
Mn1B Mn 0.92394(6) -0.00049(3) 1.25600(3)
N1A N 0.0093(3) -0.1157(2) 0.64709(19)
N4C N -0.0690(3) 0.0963(2) 0.64686(19)
N5B N 0.2124(3) -0.0989(2) 0.8409(2)
loop_
_geom_bond_atom_site_label_1
_geom_bond_atom_site_label_2
_geom_bond_site_symmetry_1
_geom_bond_site_symmetry_2
Ag1 Ag2 1_555 1_555
Ag2 C3 1_555 1_555
Mn1 N2 1_555 1_555
N1 C3 1_555 1_555
N2 C4 1_555 1_555
N3 Mn1 1_555 1_555
N4 C1 1_555 1_555
N5 C6 1_555 1_555
N6 Mn1 1_555 1_555
C1 Ag1 1_555 1_555
C2 Ag1 1_555 1_555
C4 H1 1_555 1_555
C5 N6 1_555 1_555
H2 C5 1_555 1_555
C6 Ag2 1_555 1_555
C7 N2 1_555 1_555
H3 C7 1_555 1_555
C8 N6 1_555 1_555
H4 C8 1_555 1_555
C9 C8 1_555 1_555
C10 C4 1_555 1_555
C11 C7 1_555 1_555
H5 C11 1_555 1_555
C12 C9 1_555 1_555
H6 C12 1_555 1_555
C13 C5 1_555 1_555
H7 C13 1_555 1_555
C14 C10 1_555 1_555
H8 C14 1_555 1_555
C15 C9 1_555 1_555
H9 C15 1_555 1_555
H10 C15 1_555 1_555
H11 C15 1_555 1_555
C16 C10 1_555 1_555
H12 C16 1_555 1_555
H13 C16 1_555 1_555
H14 C16 1_555 1_555
Mn1A N1 1_555 1_555
Mn1C N4 1_555 1_555
Mn1B N5 1_555 1_555
N1A Mn1 1_555 1_555
N4C Mn1 1_555 1_555
N5B Mn1 1_555 1_555
N3 C2 1_555 1_555
C11 C14 1_555 1_555
C12 C13 1_555 1_555

#END
