
#######################################################################
#
#                 Cambridge Crystallographic Data Centre
#                                CCDC 
#
#######################################################################
#
# If this CIF has been generated from an entry in the Cambridge 
# Structural Database, then it will include bibliographic, chemical, 
# crystal, experimental, refinement or atomic coordinate data resulting 
# from the CCDC's data processing and validation procedures.
#
#######################################################################

data_YOSQIH
_symmetry_cell_setting           monoclinic
_symmetry_space_group_name_H-M   'P 21/n'
_symmetry_Int_Tables_number      14
_space_group_name_Hall           '-P 2yn'
loop_
_symmetry_equiv_pos_site_id
_symmetry_equiv_pos_as_xyz
1 x,y,z
2 1/2-x,1/2+y,1/2-z
3 -x,-y,-z
4 1/2+x,1/2-y,1/2+z
_cell_length_a                   9.1251(2)
_cell_length_b                   8.7899(3)
_cell_length_c                   16.4571(5)
_cell_angle_alpha                90
_cell_angle_beta                 92.599(2)
_cell_angle_gamma                90
_cell_volume                     1318.65
loop_
_atom_site_label
_atom_site_type_symbol
_atom_site_fract_x
_atom_site_fract_y
_atom_site_fract_z
C1 C 0.4693(5) 0.9789(5) 0.5399(3)
H1 H 0.3664 0.9535 0.5310
H2 H 0.4753 1.0667 0.5756
C2 C 0.7514(5) 0.8734(5) 0.5960(3)
C3 C 0.7970(5) 0.9773(5) 0.6555(3)
H3 H 0.7282 1.0212 0.6882
C4 C 0.9433(6) 1.0163(6) 0.6667(3)
H4 H 0.9730 1.0873 0.7059
C5 C 1.0424(6) 0.9493(6) 0.6196(3)
H5 H 1.1410 0.9746 0.6273
C6 C 1.0010(5) 0.8441(6) 0.5603(3)
H6 H 1.0719 0.7988 0.5294
C7 C 0.8537(5) 0.8056(5) 0.5465(3)
C8 C 0.8952(6) 0.6519(6) 0.4339(3)
H7 H 0.9876 0.6968 0.4370
C9 C 0.8698(5) 0.5389(6) 0.3709(3)
C10 C 0.9759(5) 0.4971(5) 0.3119(3)
H8 H 1.0687 0.5396 0.3082
C11 C 0.9179(7) 0.3851(7) 0.2626(3)
H9 H 0.9691 0.3426 0.2206
C12 C 0.7817(7) 0.3407(6) 0.2791(4)
H10 H 0.7305 0.2653 0.2501
N1 N 0.8046(4) 0.6967(4) 0.4856(2)
S1 S 0.56298(12) 0.81865(14) 0.59102(8)
S2 S 0.71373(16) 0.43497(18) 0.35700(10)
Cu1 Cu 0.59343(6) 0.61722(6) 0.50018(4)
I1 I 0.35828(3) 0.62377(4) 0.40484(2)
C1B C 0.5307(5) 1.0211(5) 0.4601(3)
H1B H 0.6336 1.0465 0.4690
H2B H 0.5247 0.9333 0.4244
C2B C 0.2486(5) 1.1266(5) 0.4040(3)
C3B C 0.2030(5) 1.0227(5) 0.3445(3)
H3B H 0.2718 0.9788 0.3118
C4B C 0.0567(6) 0.9837(6) 0.3333(3)
H4B H 0.0270 0.9127 0.2941
C5B C -0.0424(6) 1.0507(6) 0.3804(3)
H5B H -0.1410 1.0254 0.3727
C6B C -0.0010(5) 1.1559(6) 0.4397(3)
H6B H -0.0719 1.2012 0.4706
C7B C 0.1463(5) 1.1944(5) 0.4535(3)
C8B C 0.1048(6) 1.3481(6) 0.5661(3)
H7B H 0.0124 1.3032 0.5630
C9B C 0.1302(5) 1.4611(6) 0.6291(3)
C10B C 0.0241(5) 1.5029(5) 0.6881(3)
H8B H -0.0687 1.4604 0.6918
C11B C 0.0821(7) 1.6149(7) 0.7374(3)
H9B H 0.0309 1.6574 0.7794
C12B C 0.2183(7) 1.6593(6) 0.7209(4)
H10B H 0.2695 1.7347 0.7499
N1B N 0.1954(4) 1.3033(4) 0.5144(2)
S1B S 0.43702(12) 1.18135(14) 0.40898(8)
S2B S 0.28627(16) 1.56503(18) 0.64300(10)
Cu1B Cu 0.40657(6) 1.38278(6) 0.49982(4)
Cu1B_2 Cu 0.40657(6) 0.38278(6) 0.49982(4)
I1B I 0.64172(3) 0.37623(4) 0.59516(2)
I1B_2 I 0.64172(3) 1.37623(4) 0.59516(2)
I1_2 I 0.35828(3) 1.62377(4) 0.40484(2)
loop_
_geom_bond_atom_site_label_1
_geom_bond_atom_site_label_2
_geom_bond_site_symmetry_1
_geom_bond_site_symmetry_2
C1 H1 1_555 1_555
H2 C1 1_555 1_555
C2 C3 1_555 1_555
C3 H3 1_555 1_555
C4 C3 1_555 1_555
H4 C4 1_555 1_555
C5 C4 1_555 1_555
H5 C5 1_555 1_555
C6 C5 1_555 1_555
H6 C6 1_555 1_555
C7 C2 1_555 1_555
C8 H7 1_555 1_555
C9 C8 1_555 1_555
C10 C9 1_555 1_555
H8 C10 1_555 1_555
C11 C10 1_555 1_555
H9 C11 1_555 1_555
C12 C11 1_555 1_555
H10 C12 1_555 1_555
N1 C7 1_555 1_555
S1 C1 1_555 1_555
S2 C9 1_555 1_555
Cu1 N1 1_555 1_555
I1 Cu1 1_555 1_555
C1B C1 1_555 1_555
H1B C1B 1_555 1_555
H2B C1B 1_555 1_555
C2B C3B 1_555 1_555
C3B H3B 1_555 1_555
C4B C3B 1_555 1_555
H4B C4B 1_555 1_555
C5B C4B 1_555 1_555
H5B C5B 1_555 1_555
C6B C5B 1_555 1_555
H6B C6B 1_555 1_555
C7B C2B 1_555 1_555
C8B H7B 1_555 1_555
C9B C8B 1_555 1_555
C10B C9B 1_555 1_555
H8B C10B 1_555 1_555
C11B C10B 1_555 1_555
H9B C11B 1_555 1_555
C12B C11B 1_555 1_555
H10B C12B 1_555 1_555
N1B C7B 1_555 1_555
S1B C1B 1_555 1_555
S2B C9B 1_555 1_555
Cu1B N1B 1_555 1_555
Cu1B_2 I1 1_555 1_555
I1B Cu1 1_555 1_555
I1B_2 Cu1B 1_555 1_555
I1_2 Cu1B 1_555 1_555
C2 S1 1_555 1_555
C6 C7 1_555 1_555
C8 N1 1_555 1_555
C12 S2 1_555 1_555
S1 Cu1 1_555 1_555
C2B S1B 1_555 1_555
C6B C7B 1_555 1_555
C8B N1B 1_555 1_555
C12B S2B 1_555 1_555
S1B Cu1B 1_555 1_555
Cu1B_2 I1B 1_555 1_555

#END
