
#######################################################################
#
#                 Cambridge Crystallographic Data Centre
#                                CCDC 
#
#######################################################################
#
# If this CIF has been generated from an entry in the Cambridge 
# Structural Database, then it will include bibliographic, chemical, 
# crystal, experimental, refinement or atomic coordinate data resulting 
# from the CCDC's data processing and validation procedures.
#
#######################################################################

data_YOSSOP
_symmetry_cell_setting           monoclinic
_symmetry_space_group_name_H-M   'C 2'
_symmetry_Int_Tables_number      5
_space_group_name_Hall           'C 2y'
loop_
_symmetry_equiv_pos_site_id
_symmetry_equiv_pos_as_xyz
1 x,y,z
2 -x,y,-z
3 1/2+x,1/2+y,z
4 1/2-x,1/2+y,-z
_cell_length_a                   25.807(8)
_cell_length_b                   6.959(2)
_cell_length_c                   23.104(7)
_cell_angle_alpha                90
_cell_angle_beta                 112.128(5)
_cell_angle_gamma                90
_cell_volume                     3843.65
loop_
_atom_site_label
_atom_site_type_symbol
_atom_site_fract_x
_atom_site_fract_y
_atom_site_fract_z
Cu1 Cu 0.23175(2) 0.92346(8) 0.58641(2)
C1 C 0.1501(2) 1.0797(9) 0.6404(2)
H1 H 0.1231 1.0772 0.6001
C2 C 0.1357(2) 1.1458(9) 0.6881(2)
H2 H 0.0997 1.1901 0.6801
C3 C 0.1749(2) 1.1459(9) 0.7475(2)
H3 H 0.1651 1.1868 0.7803
C4 C 0.2283(2) 1.0863(8) 0.7592(2)
H4 H 0.2553 1.0884 0.7996
C5 C 0.24146(19) 1.0225(8) 0.7093(2)
C6 C 0.29880(18) 0.9624(7) 0.7152(2)
C7 C 0.3451(2) 0.9673(9) 0.7702(2)
H5 H 0.3416 1.0049 0.8072
C8 C 0.3964(2) 0.9160(10) 0.7699(2)
H6 H 0.4278 0.9144 0.8069
C9 C 0.4010(2) 0.8670(9) 0.7141(3)
H7 H 0.4356 0.8360 0.7128
C10 C 0.35325(18) 0.8648(7) 0.6603(2)
H8 H 0.3561 0.8317 0.6227
C11 C 0.23400(19) 0.8061(8) 0.4740(2)
C12 C 0.17158(17) 0.8019(7) 0.46244(18)
H9 H 0.1626 0.6702 0.4705
C13 C 0.13454(18) 0.8491(8) 0.39609(19)
H10 H 0.1475 0.7780 0.3680
H11 H 0.1380 0.9850 0.3889
C14 C 0.0723(2) 0.8017(9) 0.3805(2)
H12 H 0.0669 0.6637 0.3766
H13 H 0.0614 0.8458 0.4141
C15 C 0.03692(18) 0.8957(9) 0.3212(2)
N1 N 0.20331(14) 1.0167(6) 0.65029(16)
N2 N 0.30264(14) 0.9094(7) 0.66092(15)
N3 N 0.16260(14) 0.9251(8) 0.50944(16)
H27 H 0.1335 0.8809 0.5181
H28 H 0.1547 1.0458 0.4947
N4 N 0.04225(17) 0.8512(7) 0.27081(15)
H29 H 0.0210 0.9035 0.2363
H30 H 0.0671 0.7686 0.2710
O1 O 0.26747(13) 0.8413(6) 0.53011(15)
O2 O 0.24972(13) 0.7662(6) 0.43103(14)
O3 O -0.00135(16) 1.0238(7) 0.32249(18)
Cu1C Cu 0.26825(2) 0.42346(8) 0.41359(2)
O2C O 0.25028(13) 1.2662(6) 0.56897(14)
Cu2 Cu 0.22493(2) 0.16815(9) 0.08273(2)
C16 C 0.1440(2) 0.0095(9) 0.1337(2)
H14 H 0.1182 0.0143 0.0928
C17 C 0.1263(2) -0.0587(11) 0.1806(2)
H15 H 0.0904 -0.1067 0.1710
C18 C 0.1644(2) -0.0514(9) 0.2414(2)
H16 H 0.1539 -0.0888 0.2740
C19 C 0.2185(2) 0.0119(8) 0.2537(2)
H17 H 0.2444 0.0169 0.2945
C20 C 0.2336(2) 0.0676(8) 0.2048(2)
C21 C 0.28974(19) 0.1294(7) 0.2120(2)
C22 C 0.3365(2) 0.1283(9) 0.2684(2)
H18 H 0.3325 0.0914 0.3051
C23 C 0.3862(2) 0.1790(11) 0.2698(2)
H19 H 0.4172 0.1743 0.3071
C24 C 0.3922(2) 0.2393(9) 0.2155(3)
H20 H 0.4268 0.2760 0.2152
C25 C 0.3449(2) 0.2425(8) 0.1621(2)
H21 H 0.3480 0.2862 0.1255
C26 C 0.2330(2) 0.2491(8) -0.0302(2)
C27 C 0.17197(19) 0.1934(8) -0.0503(2)
H22 H 0.1639 0.0925 -0.0821
C28 C 0.1380(2) 0.3676(8) -0.0797(2)
H23 H 0.1474 0.4692 -0.0487
H24 H 0.1491 0.4105 -0.1133
C29 C 0.0757(2) 0.3421(10) -0.1056(2)
H25 H 0.0583 0.4668 -0.1183
H26 H 0.0645 0.2948 -0.0726
C30 C 0.0537(2) 0.2068(10) -0.1604(2)
N5 N 0.19476(16) 0.0659(7) 0.14537(17)
N6 N 0.29505(15) 0.1874(8) 0.15939(17)
N7 N 0.16095(17) 0.1161(7) 0.00366(19)
H31 H 0.1551 -0.0114 -0.0010
H32 H 0.1298 0.1708 0.0051
N8 N 0.0179(2) 0.0784(10) -0.1597(2)
H33 H 0.0038 0.0016 -0.1909
H34 H 0.0081 0.0697 -0.1281
O4 O 0.26195(14) 0.2562(6) 0.02863(15)
O5 O 0.25256(14) 0.2861(6) -0.06990(16)
O6 O 0.18559(16) 0.4893(6) 0.09289(17)
O7 O 0.06810(16) 0.2203(7) -0.20586(16)
O8 O 0.0481(2) 0.152(2) 0.0090(3)
O9 O 0.0088(3) -0.0739(16) 0.0545(2)
S2 S 0.0000 0.0630(7) 0.0000
O8A O -0.0481(2) 0.152(2) -0.0090(3)
O9A O -0.0088(3) -0.0739(16) -0.0545(2)
O10 O 0.44974(15) 0.3883(8) 0.48405(17)
O11 O 0.50528(16) 0.6354(8) 0.55383(16)
S1 S 0.5000 0.5103(4) 0.5000
O10A O 0.55026(15) 0.3883(8) 0.51595(17)
O11A O 0.49472(16) 0.6354(8) 0.44617(16)
O12 O 0.40389(16) 0.8065(6) 0.54421(18)
O13 O 0.19155(17) 0.5670(7) 0.59676(18)
O14 O 0.5744(2) 1.0151(9) 0.5659(3)
O15 O 0.0721(2) 0.5438(15) 0.0659(4)
loop_
_geom_bond_atom_site_label_1
_geom_bond_atom_site_label_2
_geom_bond_site_symmetry_1
_geom_bond_site_symmetry_2
Cu1 N1 1_555 1_555
Cu2 N5 1_555 1_555
C1 H1 1_555 1_555
C2 C1 1_555 1_555
H2 C2 1_555 1_555
C3 C2 1_555 1_555
H3 C3 1_555 1_555
C4 C3 1_555 1_555
H4 C4 1_555 1_555
C5 C4 1_555 1_555
C6 C5 1_555 1_555
C7 C6 1_555 1_555
H5 C7 1_555 1_555
C8 C7 1_555 1_555
H6 C8 1_555 1_555
C9 C8 1_555 1_555
H7 C9 1_555 1_555
C10 C9 1_555 1_555
H8 C10 1_555 1_555
C11 C12 1_555 1_555
C12 H9 1_555 1_555
C13 C12 1_555 1_555
H10 C13 1_555 1_555
H11 C13 1_555 1_555
C14 C13 1_555 1_555
H12 C14 1_555 1_555
H13 C14 1_555 1_555
C15 C14 1_555 1_555
C16 H14 1_555 1_555
C17 C16 1_555 1_555
H15 C17 1_555 1_555
C18 C17 1_555 1_555
H16 C18 1_555 1_555
C19 C18 1_555 1_555
H17 C19 1_555 1_555
C20 C19 1_555 1_555
C21 C20 1_555 1_555
C22 C21 1_555 1_555
H18 C22 1_555 1_555
C23 C22 1_555 1_555
H19 C23 1_555 1_555
C24 C23 1_555 1_555
H20 C24 1_555 1_555
C25 C24 1_555 1_555
H21 C25 1_555 1_555
C26 C27 1_555 1_555
C27 H22 1_555 1_555
C28 C27 1_555 1_555
H23 C28 1_555 1_555
H24 C28 1_555 1_555
C29 C28 1_555 1_555
H25 C29 1_555 1_555
H26 C29 1_555 1_555
C30 C29 1_555 1_555
N1 C1 1_555 1_555
N2 Cu1 1_555 1_555
N3 Cu1 1_555 1_555
H27 N3 1_555 1_555
H28 N3 1_555 1_555
N4 C15 1_555 1_555
H29 N4 1_555 1_555
H30 N4 1_555 1_555
N5 C16 1_555 1_555
N6 Cu2 1_555 1_555
N7 Cu2 1_555 1_555
H31 N7 1_555 1_555
H32 N7 1_555 1_555
N8 C30 1_555 1_555
H33 N8 1_555 1_555
H34 N8 1_555 1_555
O1 Cu1 1_555 1_555
O2 C11 1_555 1_555
O3 C15 1_555 1_555
O4 Cu2 1_555 1_555
O5 C26 1_555 1_555
O6 Cu2 1_555 1_555
O7 C30 1_555 1_555
O8 S2 1_555 1_555
O9 S2 1_555 1_555
O10 S1 1_555 1_555
O11 S1 1_555 1_555
S1 O10A 1_555 1_555
S2 O8A 1_555 1_555
Cu1C O2 1_555 1_555
O2C Cu1 1_555 1_555
O9A S2 1_555 1_555
O11A S1 1_555 1_555
C5 N1 1_555 1_555
C6 N2 1_555 1_555
C10 N2 1_555 1_555
C11 O1 1_555 1_555
C12 N3 1_555 1_555
C20 N5 1_555 1_555
C21 N6 1_555 1_555
C25 N6 1_555 1_555
C26 O4 1_555 1_555
C27 N7 1_555 1_555

#END
