
#######################################################################
#
#                 Cambridge Crystallographic Data Centre
#                                CCDC 
#
#######################################################################
#
# If this CIF has been generated from an entry in the Cambridge 
# Structural Database, then it will include bibliographic, chemical, 
# crystal, experimental, refinement or atomic coordinate data resulting 
# from the CCDC's data processing and validation procedures.
#
#######################################################################

data_YOSWUZ
_symmetry_cell_setting           triclinic
_symmetry_space_group_name_H-M   'P -1'
_symmetry_Int_Tables_number      2
_space_group_name_Hall           '-P 1'
loop_
_symmetry_equiv_pos_site_id
_symmetry_equiv_pos_as_xyz
1 x,y,z
2 -x,-y,-z
_cell_length_a                   8.006(4)
_cell_length_b                   9.497(4)
_cell_length_c                   10.021(4)
_cell_angle_alpha                65.30(3)
_cell_angle_beta                 79.32(4)
_cell_angle_gamma                68.58(3)
_cell_volume                     643.922
loop_
_atom_site_label
_atom_site_type_symbol
_atom_site_fract_x
_atom_site_fract_y
_atom_site_fract_z
Ag1 Ag 0.15309(3) 0.60969(3) 0.31141(3)
O1 O 0.0148(4) 0.6177(3) 0.5616(4)
O2 O -0.0517(5) 0.8704(4) 0.4208(3)
O3 O -0.1590(5) 0.8015(4) 0.6423(3)
N1 N 0.0002(4) 0.7779(3) -0.0144(3)
N2 N -0.0242(4) 0.7720(3) 0.1259(3)
N3 N 0.4418(4) 0.6656(3) -0.3854(3)
N4 N 0.6034(4) 0.5788(3) -0.4284(3)
N5 N -0.0667(4) 0.7647(3) 0.5427(3)
C1 C 0.1472(4) 0.6629(4) -0.0566(3)
C2 C 0.2039(4) 0.5000(4) 0.0366(4)
H1 H 0.1473 0.4635 0.1283
C3 C 0.3462(5) 0.3927(4) -0.0095(4)
H2 H 0.3892 0.2838 0.0540
C4 C 0.4266(4) 0.4443(4) -0.1491(4)
H3 H 0.5198 0.3699 -0.1800
C5 C 0.3660(4) 0.6078(4) -0.2412(3)
C6 C 0.2287(4) 0.7191(4) -0.1944(3)
H4 H 0.1919 0.8298 -0.2544
C7 C -0.1284(5) 0.9050(4) -0.1005(4)
H5 H -0.1388 0.9341 -0.2002
C8 C -0.2411(5) 0.9835(4) -0.0142(4)
H6 H -0.3431 1.0751 -0.0426
C9 C -0.1709(5) 0.8975(4) 0.1239(4)
H7 H -0.2201 0.9240 0.2053
C10 C 0.3661(5) 0.8045(4) -0.4988(4)
H8 H 0.2556 0.8827 -0.4959
C11 C 0.4798(5) 0.8096(5) -0.6179(4)
H9 H 0.4640 0.8911 -0.7118
C12 C 0.6252(5) 0.6669(4) -0.5695(4)
H10 H 0.7247 0.6371 -0.6285
Ag1A Ag -0.15309(3) 0.39031(3) 0.68859(3)
Ag1A_2 Ag 0.84691(3) 0.39031(3) -0.31141(3)
O1A O -0.0148(4) 0.3823(3) 0.4384(4)
N4A N 0.3966(4) 0.4212(3) 0.4284(3)
loop_
_geom_bond_atom_site_label_1
_geom_bond_atom_site_label_2
_geom_bond_site_symmetry_1
_geom_bond_site_symmetry_2
Ag1 O1 1_555 1_555
O1 N5 1_555 1_555
O2 N5 1_555 1_555
O3 N5 1_555 1_555
N1 N2 1_555 1_555
N2 Ag1 1_555 1_555
N3 N4 1_555 1_555
N4 C12 1_555 1_555
C1 N1 1_555 1_555
C2 C1 1_555 1_555
H1 C2 1_555 1_555
C3 C2 1_555 1_555
H2 C3 1_555 1_555
C4 C3 1_555 1_555
H3 C4 1_555 1_555
C5 N3 1_555 1_555
C6 C1 1_555 1_555
H4 C6 1_555 1_555
C7 N1 1_555 1_555
H5 C7 1_555 1_555
C8 C7 1_555 1_555
H6 C8 1_555 1_555
C9 N2 1_555 1_555
H7 C9 1_555 1_555
C10 N3 1_555 1_555
H8 C10 1_555 1_555
C11 C10 1_555 1_555
H9 C11 1_555 1_555
C12 C11 1_555 1_555
H10 C12 1_555 1_555
Ag1A O1 1_555 1_555
Ag1A_2 N4 1_555 1_555
O1A Ag1 1_555 1_555
N4A Ag1 1_555 1_555
C4 C5 1_555 1_555
C5 C6 1_555 1_555
C8 C9 1_555 1_555
Ag1A O1A 1_555 1_555

#END
