
#######################################################################
#
#                 Cambridge Crystallographic Data Centre
#                                CCDC 
#
#######################################################################
#
# If this CIF has been generated from an entry in the Cambridge 
# Structural Database, then it will include bibliographic, chemical, 
# crystal, experimental, refinement or atomic coordinate data resulting 
# from the CCDC's data processing and validation procedures.
#
#######################################################################

data_YOSWUA
_symmetry_cell_setting           monoclinic
_symmetry_space_group_name_H-M   'P 21/c'
_symmetry_Int_Tables_number      14
_space_group_name_Hall           '-P 2ybc'
loop_
_symmetry_equiv_pos_site_id
_symmetry_equiv_pos_as_xyz
1 x,y,z
2 -x,1/2+y,1/2-z
3 -x,-y,-z
4 x,1/2-y,1/2+z
_cell_length_a                   14.4681(5)
_cell_length_b                   17.8162(5)
_cell_length_c                   6.8047(2)
_cell_angle_alpha                90
_cell_angle_beta                 90.8680(10)
_cell_angle_gamma                90
_cell_volume                     1753.82
loop_
_atom_site_label
_atom_site_type_symbol
_atom_site_fract_x
_atom_site_fract_y
_atom_site_fract_z
C1 C 0.25329(19) 0.69968(16) 0.3142(4)
C2 C 0.18640(19) 0.64628(15) 0.2611(4)
H1 H 0.2002 0.5954 0.2693
C3 C 0.09904(19) 0.66949(15) 0.1958(4)
C4 C 0.07826(18) 0.74507(15) 0.1802(4)
H2 H 0.0204 0.7603 0.1344
C5 C 0.14436(19) 0.79799(15) 0.2334(4)
C6 C 0.23090(19) 0.77512(15) 0.3011(4)
H3 H 0.2745 0.8110 0.3381
C7 C 0.02712(19) 0.61299(15) 0.1444(4)
C8 C 0.1204(2) 0.87984(15) 0.2245(4)
C9 C 0.3604(3) 0.6031(2) 0.4385(7)
H4 H 0.3625 0.5715 0.3224
H5 H 0.3111 0.5847 0.5208
C10 C 0.4509(3) 0.5974(2) 0.5491(6)
C11 C 0.5332(3) 0.6058(3) 0.4547(7)
H6 H 0.5328 0.6179 0.3217
C12 C 0.6167(5) 0.5969(5) 0.5534(11)
H7 H 0.6717 0.6000 0.4847
C13 C 0.6190(4) 0.5833(4) 0.7520(9)
C14 C 0.5365(3) 0.5776(3) 0.8473(6)
H8 H 0.5366 0.5693 0.9823
C15 C 0.4531(3) 0.5840(3) 0.7465(6)
H9 H 0.3981 0.5791 0.8140
C16 C 0.7087(2) 0.57047(18) 0.8600(5)
Cd1 Cd 0.135791(14) 1.031953(11) 0.44281(3)
Cd2 Cd 0.0000 1.0000 0.0000
N1 N 0.34058(17) 0.67842(15) 0.3808(4)
H10 H 0.3838 0.7115 0.3874
O1 O 0.17337(15) 0.92524(11) 0.3127(3)
O2 O 0.04744(15) 0.89685(11) 0.1334(3)
O3 O -0.04767(13) 0.63451(11) 0.0669(3)
O4 O 0.04087(14) 0.54314(10) 0.1810(3)
O5 O 0.77977(15) 0.55182(14) 0.7673(3)
O6 O 0.71111(17) 0.57481(16) 1.0427(4)
O7 O 0.13348(14) 1.07208(12) 0.0749(3)
H11 H 0.1239 1.1255 0.0568
H12 H 0.1632 1.0639 -0.0298
C1B C -0.25329(19) 1.30032(16) -0.3142(4)
C2B C -0.18640(19) 1.35372(15) -0.2611(4)
H1B H -0.2002 1.4046 -0.2693
C3B C -0.09904(19) 1.33051(15) -0.1958(4)
C4B C -0.07826(18) 1.25493(15) -0.1802(4)
H2B H -0.0204 1.2397 -0.1344
C5B C -0.14436(19) 1.20201(15) -0.2334(4)
C6B C -0.23090(19) 1.22488(15) -0.3011(4)
H3B H -0.2745 1.1890 -0.3381
C7B C -0.02712(19) 1.38701(15) -0.1444(4)
C8B C -0.1204(2) 1.12016(15) -0.2245(4)
C9B C -0.3604(3) 1.3969(2) -0.4385(7)
H4B H -0.3625 1.4285 -0.3224
H5B H -0.3111 1.4153 -0.5208
C10B C -0.4509(3) 1.4026(2) -0.5491(6)
C11B C -0.5332(3) 1.3942(3) -0.4547(7)
H6B H -0.5328 1.3821 -0.3217
C12B C -0.6167(5) 1.4031(5) -0.5534(11)
H7B H -0.6717 1.4000 -0.4847
C13B C -0.6190(4) 1.4167(4) -0.7520(9)
C14B C -0.5365(3) 1.4224(3) -0.8473(6)
H8B H -0.5366 1.4307 -0.9823
C15B C -0.4531(3) 1.4160(3) -0.7465(6)
H9B H -0.3981 1.4209 -0.8140
C16B C -0.7087(2) 1.42953(18) -0.8600(5)
Cd1B Cd -0.135791(14) 0.968047(11) -0.44281(3)
N1B N -0.34058(17) 1.32158(15) -0.3808(4)
H10B H -0.3838 1.2885 -0.3874
O1B O -0.17337(15) 1.07476(11) -0.3127(3)
O2B O -0.04744(15) 1.10315(11) -0.1334(3)
O3B O 0.04767(13) 1.36549(11) -0.0669(3)
O4B O -0.04087(14) 1.45686(10) -0.1810(3)
O5B O -0.77977(15) 1.44818(14) -0.7673(3)
O6B O -0.71111(17) 1.42519(16) -1.0427(4)
O7B O -0.13348(14) 0.92792(12) -0.0749(3)
H11B H -0.1239 0.8745 -0.0568
H12B H -0.1632 0.9361 0.0298
Cd1A Cd -0.135791(14) 0.531953(11) 0.05719(3)
Cd1A_2 Cd -0.135791(14) 1.531953(11) 0.05719(3)
Cd1A_3 Cd 0.864209(14) 0.531953(11) 1.05719(3)
Cd1C Cd -0.864209(14) 1.468047(11) -1.05719(3)
Cd1C_2 Cd 0.135791(14) 0.468047(11) -0.05719(3)
Cd1C_3 Cd 0.135791(14) 1.468047(11) -0.05719(3)
Cd2A Cd 0.0000 0.5000 0.5000
Cd2A_2 Cd 0.0000 1.5000 -0.5000
O3A O 0.04767(13) 1.13451(11) 0.4331(3)
O3C O -0.04767(13) 0.86549(11) -0.4331(3)
O4A O -0.04087(14) 1.04314(10) -0.6810(3)
O4A_2 O -0.04087(14) 1.04314(10) 0.3190(3)
O4C O 0.04087(14) 0.95686(10) -0.3190(3)
O4C_2 O 0.04087(14) 0.95686(10) 0.6810(3)
O5A O 0.22023(15) 1.05182(14) 0.7327(3)
O5C O -0.22023(15) 0.94818(14) -0.7327(3)
O6A O 0.28889(17) 1.07481(16) 0.4573(4)
O6C O -0.28889(17) 0.92519(16) -0.4573(4)
O8 O 0.8491(2) 0.72843(17) 0.4421(6)
H20 H 0.8456 0.7342 0.5658
H21 H 0.8888 0.7596 0.4008
O9 O 0.7020(6) 0.7281(5) 0.1908(13)
H22 H 0.6803 0.6968 0.1037
C17? C 0.418(2) 0.724(2) 0.433(6)
H13? H 0.3982 0.7629 0.5223
H14? H 0.4408 0.7481 0.3153
C18? C 0.4929(16) 0.6803(15) 0.526(3)
C19? C 0.565(2) 0.648(2) 0.421(3)
H15? H 0.5649 0.6514 0.2848
C20? C 0.636(2) 0.611(3) 0.521(5)
H16? H 0.6836 0.5895 0.4507
C21? C 0.6351(19) 0.606(2) 0.724(5)
C22? C 0.5634(18) 0.6383(18) 0.829(3)
H17? H 0.5630 0.6350 0.9652
C23? C 0.4923(15) 0.6754(15) 0.729(3)
H18? H 0.4443 0.6969 0.7993
H19? H 0.3431 0.6349 0.4359
loop_
_geom_bond_atom_site_label_1
_geom_bond_atom_site_label_2
_geom_bond_site_symmetry_1
_geom_bond_site_symmetry_2
C1 C2 1_555 1_555
C2 H1 1_555 1_555
C3 C2 1_555 1_555
C4 C3 1_555 1_555
H2 C4 1_555 1_555
C5 C4 1_555 1_555
C6 C1 1_555 1_555
H3 C6 1_555 1_555
C7 C3 1_555 1_555
C8 C5 1_555 1_555
C9 H4 1_555 1_555
H5 C9 1_555 1_555
C10 C9 1_555 1_555
C11 C10 1_555 1_555
H6 C11 1_555 1_555
C12 C11 1_555 1_555
H7 C12 1_555 1_555
C13 C12 1_555 1_555
C14 C13 1_555 1_555
H8 C14 1_555 1_555
C15 C10 1_555 1_555
H9 C15 1_555 1_555
C16 C13 1_555 1_555
Cd1 O1 1_555 1_555
Cd2 O2 1_555 1_555
N1 C1 1_555 1_555
H10 N1 1_555 1_555
O1 C8 1_555 1_555
O2 C8 1_555 1_555
O3 C7 1_555 1_555
O4 C7 1_555 1_555
O5 C16 1_555 1_555
O6 C16 1_555 1_555
O7 Cd1 1_555 1_555
H11 O7 1_555 1_555
H12 O7 1_555 1_555
O8 H20 1_555 1_555
H21 O8 1_555 1_555
O9 H22 1_555 1_555
C1B C2B 1_555 1_555
C2B H1B 1_555 1_555
C3B C2B 1_555 1_555
C4B C3B 1_555 1_555
H2B C4B 1_555 1_555
C5B C4B 1_555 1_555
C6B C1B 1_555 1_555
H3B C6B 1_555 1_555
C7B C3B 1_555 1_555
C8B C5B 1_555 1_555
C9B H4B 1_555 1_555
H5B C9B 1_555 1_555
C10B C9B 1_555 1_555
C11B C10B 1_555 1_555
H6B C11B 1_555 1_555
C12B C11B 1_555 1_555
H7B C12B 1_555 1_555
C13B C12B 1_555 1_555
C14B C13B 1_555 1_555
H8B C14B 1_555 1_555
C15B C10B 1_555 1_555
H9B C15B 1_555 1_555
C16B C13B 1_555 1_555
Cd1B O1B 1_555 1_555
N1B C1B 1_555 1_555
H10B N1B 1_555 1_555
O1B C8B 1_555 1_555
O2B Cd2 1_555 1_555
O3B C7B 1_555 1_555
O4B C7B 1_555 1_555
O5B C16B 1_555 1_555
O6B C16B 1_555 1_555
O7B Cd2 1_555 1_555
H11B O7B 1_555 1_555
H12B O7B 1_555 1_555
Cd1A O3 1_555 1_555
Cd1A_2 O4B 1_555 1_555
Cd1A_3 O5 1_555 1_555
Cd1C O5B 1_555 1_555
Cd1C_2 O4 1_555 1_555
Cd1C_3 O3B 1_555 1_555
Cd2A O4 1_555 1_555
Cd2A_2 O4B 1_555 1_555
O3A Cd1 1_555 1_555
O3C Cd1B 1_555 1_555
O4A Cd1B 1_555 1_555
O4A_2 Cd1 1_555 1_555
O4C Cd2 1_555 1_555
O4C_2 Cd1 1_555 1_555
O5A Cd1 1_555 1_555
O5C Cd1B 1_555 1_555
O6A Cd1 1_555 1_555
O6C Cd1B 1_555 1_555
C5 C6 1_555 1_555
C9 N1 1_555 1_555
C14 C15 1_555 1_555
Cd2 O7 1_555 1_555
Cd2 O4A_2 1_555 1_555
O4 Cd1A 1_555 1_555
O6 Cd1A_3 1_555 1_555
C5B C6B 1_555 1_555
C8B O2B 1_555 1_555
C9B N1B 1_555 1_555
C14B C15B 1_555 1_555
Cd1B O7B 1_555 1_555
Cd1B O4C 1_555 1_555
O4B Cd1C_3 1_555 1_555
O6B Cd1C 1_555 1_555

#END
