
#######################################################################
#
#                 Cambridge Crystallographic Data Centre
#                                CCDC 
#
#######################################################################
#
# If this CIF has been generated from an entry in the Cambridge 
# Structural Database, then it will include bibliographic, chemical, 
# crystal, experimental, refinement or atomic coordinate data resulting 
# from the CCDC's data processing and validation procedures.
#
#######################################################################

data_YOSZIQ
_symmetry_cell_setting           triclinic
_symmetry_space_group_name_H-M   'P -1'
_symmetry_Int_Tables_number      2
_space_group_name_Hall           '-P 1'
loop_
_symmetry_equiv_pos_site_id
_symmetry_equiv_pos_as_xyz
1 x,y,z
2 -x,-y,-z
_cell_length_a                   7.6539(1)
_cell_length_b                   8.8763(1)
_cell_length_c                   10.0455(1)
_cell_angle_alpha                65.851(1)
_cell_angle_beta                 81.877(1)
_cell_angle_gamma                73.474(1)
_cell_volume                     596.78
loop_
_atom_site_label
_atom_site_type_symbol
_atom_site_fract_x
_atom_site_fract_y
_atom_site_fract_z
Co1 Co 0.5000 -0.5000 -0.5000
S1 S 0.14752(9) 0.07697(6) -0.75239(7)
O1 O 0.47565(16) -0.61995(15) -0.63451(12)
H1 H 0.438(3) -0.567(2) -0.7182(18)
H2 H 0.543(3) -0.716(2) -0.627(2)
N1 N 0.33513(17) -0.26620(17) -0.63251(14)
N2 N 0.25946(16) -0.57098(16) -0.37120(13)
N3 N -0.35125(16) -0.57777(16) -0.07669(13)
C1 C 0.2609(2) -0.7331(2) -0.2854(2)
H5 H 0.3645 -0.8202 -0.2906
C2 C 0.1191(2) -0.7799(2) -0.1897(2)
H6 H 0.1282 -0.8967 -0.1295
C3 C -0.03648(19) -0.65684(19) -0.18150(15)
C4 C -0.0414(2) -0.4901(2) -0.27419(17)
H7 H -0.1465 -0.4013 -0.2755
C5 C 0.1079(2) -0.4530(2) -0.36521(17)
H8 H 0.1021 -0.3373 -0.4268
C6 C -0.18808(19) -0.71379(19) -0.07562(16)
H9 H -0.2245 -0.7994 -0.0977
H10 H -0.1399 -0.7711 0.0241
C7 C -0.5060(2) -0.6538(2) -0.00871(16)
H11 H -0.4765 -0.7361 0.0924
H12 H -0.5278 -0.7166 -0.0641
C8 C -0.32333(19) -0.4835(2) 0.00675(16)
H13 H -0.2205 -0.4305 -0.0380
H14 H -0.2917 -0.5636 0.1081
C9 C 0.2567(2) -0.1247(2) -0.68178(16)
Co1_2 Co -1.5000 -0.5000 0.5000
S1A S 0.85248(9) -1.07697(6) -0.24761(7)
O1A O 0.52435(16) -0.38005(15) -0.36549(12)
H1A H 0.562(3) -0.433(2) -0.2818(18)
H2A H 0.457(3) -0.284(2) -0.373(2)
N1A N 0.66487(17) -0.73380(17) -0.36749(14)
N2A N -1.25946(16) -0.42902(16) 0.37120(13)
N2A_2 N 0.74054(16) -0.42902(16) -0.62880(13)
N3A N -0.64875(16) -0.42223(16) 0.07669(13)
C1A C -1.2609(2) -0.2669(2) 0.2854(2)
H5A H -1.3645 -0.1798 0.2906
C2A C -1.1191(2) -0.2201(2) 0.1897(2)
H6A H -1.1282 -0.1033 0.1295
C3A C -0.96352(19) -0.34316(19) 0.18150(15)
C4A C -0.9586(2) -0.5099(2) 0.27419(17)
H7A H -0.8535 -0.5987 0.2755
C5A C -1.1079(2) -0.5470(2) 0.36521(17)
H8A H -1.1021 -0.6627 0.4268
C6A C -0.81192(19) -0.28621(19) 0.07562(16)
H9A H -0.7755 -0.2006 0.0977
H10A H -0.8601 -0.2289 -0.0241
C7A C -0.4940(2) -0.3462(2) 0.00871(16)
H11A H -0.5235 -0.2639 -0.0924
H12A H -0.4722 -0.2834 0.0641
C8A C -0.67667(19) -0.5165(2) -0.00675(16)
H13A H -0.7795 -0.5695 0.0380
H14A H -0.7083 -0.4364 -0.1081
C9A C 0.7433(2) -0.8753(2) -0.31822(16)
O2 O -0.2851(3) 0.0694(3) -0.6179(3)
H3 H -0.235(5) -0.044(3) -0.549(3)
H4 H -0.172(3) 0.079(5) -0.647(4)
loop_
_geom_bond_atom_site_label_1
_geom_bond_atom_site_label_2
_geom_bond_site_symmetry_1
_geom_bond_site_symmetry_2
Co1 O1 1_555 1_555
S1 C9 1_555 1_555
O1 H1 1_555 1_555
H2 O1 1_555 1_555
O2 H3 1_555 1_555
H4 O2 1_555 1_555
N1 Co1 1_555 1_555
N2 Co1 1_555 1_555
N3 C6 1_555 1_555
C1 N2 1_555 1_555
H5 C1 1_555 1_555
C2 C1 1_555 1_555
H6 C2 1_555 1_555
C3 C2 1_555 1_555
C4 C3 1_555 1_555
H7 C4 1_555 1_555
C5 N2 1_555 1_555
H8 C5 1_555 1_555
C6 C3 1_555 1_555
H9 C6 1_555 1_555
H10 C6 1_555 1_555
C7 N3 1_555 1_555
H11 C7 1_555 1_555
H12 C7 1_555 1_555
C8 N3 1_555 1_555
H13 C8 1_555 1_555
H14 C8 1_555 1_555
C9 N1 1_555 1_555
Co1_2 N2A 1_555 1_555
S1A C9A 1_555 1_555
O1A Co1 1_555 1_555
H1A O1A 1_555 1_555
H2A O1A 1_555 1_555
N1A Co1 1_555 1_555
N2A C1A 1_555 1_555
N2A_2 Co1 1_555 1_555
N3A C6A 1_555 1_555
C1A H5A 1_555 1_555
C2A C1A 1_555 1_555
H6A C2A 1_555 1_555
C3A C2A 1_555 1_555
C4A C3A 1_555 1_555
H7A C4A 1_555 1_555
C5A N2A 1_555 1_555
H8A C5A 1_555 1_555
C6A C3A 1_555 1_555
H9A C6A 1_555 1_555
H10A C6A 1_555 1_555
C7A C8 1_555 1_555
H11A C7A 1_555 1_555
H12A C7A 1_555 1_555
C8A C7 1_555 1_555
H13A C8A 1_555 1_555
H14A C8A 1_555 1_555
C9A N1A 1_555 1_555
C4 C5 1_555 1_555
N3A C7A 1_555 1_555
N3A C8A 1_555 1_555
C4A C5A 1_555 1_555

#END
