
#######################################################################
#
#                 Cambridge Crystallographic Data Centre
#                                CCDC 
#
#######################################################################
#
# If this CIF has been generated from an entry in the Cambridge 
# Structural Database, then it will include bibliographic, chemical, 
# crystal, experimental, refinement or atomic coordinate data resulting 
# from the CCDC's data processing and validation procedures.
#
#######################################################################

data_YOSZUC
_symmetry_cell_setting           triclinic
_symmetry_space_group_name_H-M   'P -1'
_symmetry_Int_Tables_number      2
_space_group_name_Hall           '-P 1'
loop_
_symmetry_equiv_pos_site_id
_symmetry_equiv_pos_as_xyz
1 x,y,z
2 -x,-y,-z
_cell_length_a                   10.214(5)
_cell_length_b                   10.488(5)
_cell_length_c                   12.912(6)
_cell_angle_alpha                72.715(6)
_cell_angle_beta                 76.919(5)
_cell_angle_gamma                61.632(5)
_cell_volume                     1156.14
loop_
_atom_site_label
_atom_site_type_symbol
_atom_site_fract_x
_atom_site_fract_y
_atom_site_fract_z
Zn1 Zn 0.99095(5) 1.08749(5) 0.20966(4)
Zn2 Zn 0.93172(5) 0.89384(5) 0.07138(4)
N1 N 0.9915(4) 0.9416(4) 0.3538(3)
N2 N 1.0797(4) 0.7742(4) 0.5012(3)
N3 N 1.3301(5) 0.3323(5) 0.8256(3)
N4 N 1.2024(4) 0.2070(5) 0.9153(3)
O1 O 0.7648(3) 1.0271(3) 0.1700(3)
O2 O 0.7753(3) 1.2277(3) 0.1859(3)
O3 O 0.3017(3) 1.7163(3) 0.1060(3)
O4 O 0.0906(4) 1.6963(3) 0.1227(4)
O5 O 0.0691(3) 1.2264(3) 0.2117(3)
O6 O 0.2748(3) 1.0146(3) 0.2385(3)
O7 O 1.0696(3) 0.9944(3) 0.0841(2)
H1 H 1.1654 0.9087 0.0945
C1 C 0.7046(4) 1.1621(4) 0.1737(3)
C2 C 0.5381(4) 1.2458(4) 0.1701(3)
C3 C 0.4672(4) 1.4008(4) 0.1435(3)
H2 H 0.5234 1.4542 0.1249
C4 C 0.3121(4) 1.4752(4) 0.1446(3)
C5 C 0.2305(4) 1.3936(4) 0.1694(4)
H3 H 0.1271 1.4435 0.1687
C6 C 0.2992(4) 1.2394(4) 0.1954(3)
C7 C 0.4542(4) 1.1661(4) 0.1953(3)
H4 H 0.5019 1.0628 0.2123
C8 C 0.2317(5) 1.6439(4) 0.1208(4)
C9 C 0.2108(4) 1.1515(4) 0.2184(3)
C10 C 1.1037(5) 0.8708(5) 0.4144(4)
H5 H 1.1892 0.8861 0.3987
C11 C 0.8900(6) 0.8846(6) 0.4055(4)
H6 H 0.7988 0.9129 0.3814
C12 C 0.9444(6) 0.7810(6) 0.4967(4)
H7 H 0.8986 0.7257 0.5462
C13 C 1.1855(6) 0.6705(5) 0.5822(4)
H8 H 1.1298 0.6565 0.6527
H9 H 1.2481 0.7140 0.5880
C14 C 1.2849(5) 0.5200(5) 0.5538(4)
C15 C 1.2825(6) 0.4924(6) 0.4559(4)
H10 H 1.2210 0.5690 0.4050
C16 C 1.3697(7) 0.3535(6) 0.4320(5)
H11 H 1.3646 0.3366 0.3665
C17 C 1.4643(7) 0.2402(6) 0.5060(5)
H12 H 1.5243 0.1470 0.4902
C18 C 1.4690(6) 0.2663(6) 0.6038(4)
H13 H 1.5317 0.1897 0.6539
C19 C 1.3813(5) 0.4055(5) 0.6282(4)
C20 C 1.3893(6) 0.4233(5) 0.7383(4)
H14 H 1.4924 0.3932 0.7476
H15 H 1.3318 0.5268 0.7424
C21 C 1.2203(8) 0.3027(8) 0.8345(5)
H16 H 1.1535 0.3514 0.7816
C22 C 1.3369(7) 0.1410(7) 0.9620(5)
H17 H 1.3659 0.0586 1.0198
C23 C 1.4187(7) 0.2176(7) 0.9087(5)
H18 H 1.5120 0.1993 0.9233
Zn1_2 Zn -0.00905(5) 1.08749(5) 0.20966(4)
Zn2A Zn 1.06828(5) 0.10616(5) 0.92862(4)
Zn2_2 Zn -0.06828(5) 1.89384(5) 0.07138(4)
Zn2A_2 Zn 1.06828(5) 1.10616(5) -0.07138(4)
N4A N 0.7976(4) 0.7930(5) 0.0847(3)
O4_2 O 1.0906(4) 0.6963(3) 0.1227(4)
O5_2 O 1.0691(3) 1.2264(3) 0.2117(3)
O7A O 0.9304(3) 1.0056(3) -0.0841(2)
H1A H 0.8346 1.0913 -0.0945
loop_
_geom_bond_atom_site_label_1
_geom_bond_atom_site_label_2
_geom_bond_site_symmetry_1
_geom_bond_site_symmetry_2
Zn1 N1 1_555 1_555
Zn2 O1 1_555 1_555
N1 C10 1_555 1_555
N2 C10 1_555 1_555
N3 C20 1_555 1_555
N4 C21 1_555 1_555
O1 C1 1_555 1_555
O2 Zn1 1_555 1_555
O3 C8 1_555 1_555
O4 C8 1_555 1_555
O5 C9 1_555 1_555
O6 C9 1_555 1_555
O7 Zn1 1_555 1_555
H1 O7 1_555 1_555
C1 O2 1_555 1_555
C2 C1 1_555 1_555
C3 C2 1_555 1_555
H2 C3 1_555 1_555
C4 C3 1_555 1_555
C5 C4 1_555 1_555
H3 C5 1_555 1_555
C6 C5 1_555 1_555
C7 C2 1_555 1_555
H4 C7 1_555 1_555
C8 C4 1_555 1_555
C9 C6 1_555 1_555
C10 H5 1_555 1_555
C11 N1 1_555 1_555
H6 C11 1_555 1_555
C12 N2 1_555 1_555
H7 C12 1_555 1_555
C13 N2 1_555 1_555
H8 C13 1_555 1_555
H9 C13 1_555 1_555
C14 C13 1_555 1_555
C15 C14 1_555 1_555
H10 C15 1_555 1_555
C16 C15 1_555 1_555
H11 C16 1_555 1_555
C17 C16 1_555 1_555
H12 C17 1_555 1_555
C18 C17 1_555 1_555
H13 C18 1_555 1_555
C19 C14 1_555 1_555
C20 C19 1_555 1_555
H14 C20 1_555 1_555
H15 C20 1_555 1_555
C21 N3 1_555 1_555
H16 C21 1_555 1_555
C22 N4 1_555 1_555
H17 C22 1_555 1_555
C23 N3 1_555 1_555
H18 C23 1_555 1_555
Zn1_2 O5 1_555 1_555
Zn2A N4 1_555 1_555
Zn2_2 O4 1_555 1_555
Zn2A_2 O7 1_555 1_555
N4A Zn2 1_555 1_555
O4_2 Zn2 1_555 1_555
O5_2 Zn1 1_555 1_555
O7A Zn2 1_555 1_555
H1A O7A 1_555 1_555
Zn2 O7 1_555 1_555
C6 C7 1_555 1_555
C11 C12 1_555 1_555
C18 C19 1_555 1_555
C22 C23 1_555 1_555
Zn2A_2 O7A 1_555 1_555

#END
