
#######################################################################
#
#                 Cambridge Crystallographic Data Centre
#                                CCDC 
#
#######################################################################
#
# If this CIF has been generated from an entry in the Cambridge 
# Structural Database, then it will include bibliographic, chemical, 
# crystal, experimental, refinement or atomic coordinate data resulting 
# from the CCDC's data processing and validation procedures.
#
#######################################################################

data_YOTCAM
_symmetry_cell_setting           monoclinic
_symmetry_space_group_name_H-M   'C 2/c'
_symmetry_Int_Tables_number      15
_space_group_name_Hall           '-C 2yn'
loop_
_symmetry_equiv_pos_site_id
_symmetry_equiv_pos_as_xyz
1 x,y,z
2 -x,y,1/2-z
3 1/2+x,1/2+y,z
4 1/2-x,1/2+y,1/2-z
5 -x,-y,-z
6 x,-y,1/2+z
7 1/2-x,1/2-y,-z
8 1/2+x,1/2-y,1/2+z
_cell_length_a                   19.3509(7)
_cell_length_b                   3.62320(10)
_cell_length_c                   21.2600(8)
_cell_angle_alpha                90
_cell_angle_beta                 102.174(2)
_cell_angle_gamma                90
_cell_volume                     1457.06
loop_
_atom_site_label
_atom_site_type_symbol
_atom_site_fract_x
_atom_site_fract_y
_atom_site_fract_z
Ag1 Ag -0.054927(10) 0.18113(6) 0.443081(9)
C1 C 0.08175(11) -0.3638(6) 0.41324(10)
C2 C 0.15034(12) -0.2112(6) 0.43328(12)
H1 H 0.1661 -0.1380 0.4758
C3 C 0.19321(13) -0.1714(7) 0.39055(14)
H2 H 0.2380 -0.0694 0.4040
C4 C 0.10736(14) -0.4290(7) 0.30792(11)
H3 H 0.0939 -0.5033 0.2652
C5 C 0.06220(12) -0.4738(7) 0.34795(10)
H4 H 0.0179 -0.5778 0.3325
H5 H 0.1981(15) -0.233(8) 0.3009(12)
N1 N 0.17149(12) -0.2779(6) 0.32924(11)
N2 N -0.15451(10) -0.1759(5) 0.34244(9)
O1 O 0.03930(9) -0.3999(5) 0.45201(7)
O2 O -0.15517(10) -0.2094(6) 0.40146(8)
O3 O -0.10437(9) -0.0108(6) 0.32724(9)
O4 O -0.20310(8) -0.3092(5) 0.30118(8)
Ag1_2 Ag -0.054927(10) -0.81887(6) 0.443081(9)
Ag1D Ag 0.054927(10) -0.18113(6) 0.556919(9)
O1_2 O 0.03930(9) 0.6001(5) 0.45201(7)
O1D O -0.03930(9) 0.3999(5) 0.54799(7)
loop_
_geom_bond_atom_site_label_1
_geom_bond_atom_site_label_2
_geom_bond_site_symmetry_1
_geom_bond_site_symmetry_2
Ag1 O1 1_555 1_555
C1 C2 1_555 1_555
C2 H1 1_555 1_555
C3 C2 1_555 1_555
H2 C3 1_555 1_555
C4 H3 1_555 1_555
C5 C1 1_555 1_555
H4 C5 1_555 1_555
H5 N1 1_555 1_555
N1 C3 1_555 1_555
N2 O2 1_555 1_555
O1 C1 1_555 1_555
O2 Ag1 1_555 1_555
O3 Ag1 1_555 1_555
O4 N2 1_555 1_555
Ag1_2 O1 1_555 1_555
Ag1D O1 1_555 1_555
O1_2 Ag1 1_555 1_555
O1D Ag1 1_555 1_555
C4 C5 1_555 1_555
C4 N1 1_555 1_555
N2 O3 1_555 1_555
Ag1D O1D 1_555 1_555

#END
