
#######################################################################
#
#                 Cambridge Crystallographic Data Centre
#                                CCDC 
#
#######################################################################
#
# If this CIF has been generated from an entry in the Cambridge 
# Structural Database, then it will include bibliographic, chemical, 
# crystal, experimental, refinement or atomic coordinate data resulting 
# from the CCDC's data processing and validation procedures.
#
#######################################################################

data_YOTQOP
_symmetry_cell_setting           monoclinic
_symmetry_space_group_name_H-M   'P 21/c'
_symmetry_Int_Tables_number      14
_space_group_name_Hall           '-P 2ybc'
loop_
_symmetry_equiv_pos_site_id
_symmetry_equiv_pos_as_xyz
1 x,y,z
2 -x,1/2+y,1/2-z
3 -x,-y,-z
4 x,1/2-y,1/2+z
_cell_length_a                   7.9541(2)
_cell_length_b                   9.8412(3)
_cell_length_c                   8.8672(3)
_cell_angle_alpha                90
_cell_angle_beta                 95.500(3)
_cell_angle_gamma                90
_cell_volume                     690.91
loop_
_atom_site_label
_atom_site_type_symbol
_atom_site_fract_x
_atom_site_fract_y
_atom_site_fract_z
H1 H 0.357(4) -0.020(3) 0.093(4)
H2 H 0.337(4) -0.075(3) -0.039(4)
Ca1 Ca 0.0000 0.0000 0.0000
O1 O 0.02241(19) 0.13715(15) 0.20513(16)
O2 O 0.46612(18) -0.08079(15) 0.78268(16)
O3 O 0.29156(19) -0.06140(16) 0.03611(19)
O4 O 0.06426(19) 0.32421(14) 0.34412(16)
C1 C 0.3986(3) 0.1213(2) 0.6560(2)
H3 H 0.4739 0.1692 0.7267
N1 N 0.3822(2) -0.01517(18) 0.6679(2)
C2 C 0.0858(2) 0.2008(2) 0.3180(2)
C3 C 0.1975(2) 0.1224(2) 0.4361(2)
C4 C 0.2807(2) -0.0855(2) 0.5641(2)
H4 H 0.2725 -0.1814 0.5726
C5 C 0.3063(2) 0.1906(2) 0.5415(2)
H5 H 0.3172 0.2865 0.5347
C6 C 0.1895(3) -0.0194(2) 0.4465(2)
H6 H 0.1213 -0.0698 0.3725
H1B H -0.357(4) 0.020(3) -0.093(4)
H2B H -0.337(4) 0.075(3) 0.039(4)
O1B O -0.02241(19) -0.13715(15) -0.20513(16)
O2B O -0.46612(18) 0.08079(15) -0.78268(16)
O3B O -0.29156(19) 0.06140(16) -0.03611(19)
O4B O -0.06426(19) -0.32421(14) -0.34412(16)
C1B C -0.3986(3) -0.1213(2) -0.6560(2)
H3B H -0.4739 -0.1692 -0.7267
N1B N -0.3822(2) 0.01517(18) -0.6679(2)
C2B C -0.0858(2) -0.2008(2) -0.3180(2)
C3B C -0.1975(2) -0.1224(2) -0.4361(2)
C4B C -0.2807(2) 0.0855(2) -0.5641(2)
H4B H -0.2725 0.1814 -0.5726
C5B C -0.3063(2) -0.1906(2) -0.5415(2)
H5B H -0.3172 -0.2865 -0.5347
C6B C -0.1895(3) 0.0194(2) -0.4465(2)
H6B H -0.1213 0.0698 -0.3725
Ca1A Ca 0.0000 -0.5000 -0.5000
Ca1A_2 Ca 0.0000 0.5000 0.5000
O4A O -0.06426(19) -0.17579(14) 0.15588(16)
O4C O 0.06426(19) 0.17579(14) -0.15588(16)
loop_
_geom_bond_atom_site_label_1
_geom_bond_atom_site_label_2
_geom_bond_site_symmetry_1
_geom_bond_site_symmetry_2
H1 O3 1_555 1_555
H2 O3 1_555 1_555
Ca1 O1 1_555 1_555
O1 C2 1_555 1_555
O2 N1 1_555 1_555
O3 Ca1 1_555 1_555
O4 C2 1_555 1_555
C1 H3 1_555 1_555
N1 C1 1_555 1_555
C2 C3 1_555 1_555
C3 C5 1_555 1_555
C4 N1 1_555 1_555
H4 C4 1_555 1_555
C5 C1 1_555 1_555
H5 C5 1_555 1_555
C6 C3 1_555 1_555
H6 C6 1_555 1_555
H1B O3B 1_555 1_555
H2B O3B 1_555 1_555
O1B Ca1 1_555 1_555
O2B N1B 1_555 1_555
O3B Ca1 1_555 1_555
O4B C2B 1_555 1_555
C1B H3B 1_555 1_555
N1B C1B 1_555 1_555
C2B O1B 1_555 1_555
C3B C2B 1_555 1_555
C4B N1B 1_555 1_555
H4B C4B 1_555 1_555
C5B C1B 1_555 1_555
H5B C5B 1_555 1_555
C6B C3B 1_555 1_555
H6B C6B 1_555 1_555
Ca1A O4B 1_555 1_555
Ca1A_2 O4 1_555 1_555
O4A Ca1 1_555 1_555
O4C Ca1 1_555 1_555
C4 C6 1_555 1_555
C3B C5B 1_555 1_555
C4B C6B 1_555 1_555

#END
