
#######################################################################
#
#                 Cambridge Crystallographic Data Centre
#                                CCDC 
#
#######################################################################
#
# If this CIF has been generated from an entry in the Cambridge 
# Structural Database, then it will include bibliographic, chemical, 
# crystal, experimental, refinement or atomic coordinate data resulting 
# from the CCDC's data processing and validation procedures.
#
#######################################################################

data_YOTQIJ
_symmetry_cell_setting           monoclinic
_symmetry_space_group_name_H-M   'I 2/a'
_symmetry_Int_Tables_number      15
_space_group_name_Hall           '-I 2ya'
loop_
_symmetry_equiv_pos_site_id
_symmetry_equiv_pos_as_xyz
1 x,y,z
2 1/2-x,y,-z
3 1/2+x,1/2+y,1/2+z
4 -x,1/2+y,1/2-z
5 -x,-y,-z
6 1/2+x,-y,z
7 1/2-x,1/2-y,1/2-z
8 x,1/2-y,1/2+z
_cell_length_a                   13.5472(6)
_cell_length_b                   8.7132(5)
_cell_length_c                   10.7662(4)
_cell_angle_alpha                90
_cell_angle_beta                 99.987(4)
_cell_angle_gamma                90
_cell_volume                     1251.58
loop_
_atom_site_label
_atom_site_type_symbol
_atom_site_fract_x
_atom_site_fract_y
_atom_site_fract_z
O1 O 0.33658(7) 0.24200(12) 0.69524(9)
O2 O 0.38241(7) 0.23848(12) 0.50595(9)
O3 O 0.78663(7) 0.04017(12) 0.84387(10)
N1 N 0.69498(8) 0.08108(13) 0.79178(11)
C1 C 0.66835(10) 0.08062(17) 0.66505(13)
H1 H 0.7155 0.0497 0.6141
C2 C 0.50327(9) 0.16897(15) 0.68235(12)
C3 C 0.39895(9) 0.22053(15) 0.62262(12)
C4 C 0.53267(10) 0.16516(18) 0.81262(13)
H2 H 0.4863 0.1931 0.8655
C5 C 0.62839(11) 0.12124(18) 0.86580(13)
H3 H 0.6476 0.1192 0.9549
C6 C 0.57316(10) 0.12471(17) 0.60888(12)
H4 H 0.5554 0.1248 0.5196
Li1 Li 0.20015(17) 0.3185(3) 0.6411(2)
O1F O 0.16342(7) 0.25800(12) 0.80476(9)
O2A O 0.11759(7) 0.23848(12) 0.49405(9)
O3C O 0.21337(7) 0.54017(12) 0.65613(10)
Li1A Li 0.29985(17) 0.3185(3) 0.3589(2)
Li1C Li 0.79985(17) -0.1815(3) 0.8589(2)
Li1F Li 0.29985(17) 0.1815(3) 0.8589(2)
loop_
_geom_bond_atom_site_label_1
_geom_bond_atom_site_label_2
_geom_bond_site_symmetry_1
_geom_bond_site_symmetry_2
O1 C3 1_555 1_555
O2 C3 1_555 1_555
O3 N1 1_555 1_555
N1 C1 1_555 1_555
C1 H1 1_555 1_555
C2 C3 1_555 1_555
C4 C2 1_555 1_555
H2 C4 1_555 1_555
C5 N1 1_555 1_555
H3 C5 1_555 1_555
C6 C1 1_555 1_555
H4 C6 1_555 1_555
Li1 O1 1_555 1_555
O1F Li1 1_555 1_555
O2A Li1 1_555 1_555
O3C Li1 1_555 1_555
Li1A O2 1_555 1_555
Li1C O3 1_555 1_555
Li1F O1 1_555 1_555
C2 C6 1_555 1_555
C4 C5 1_555 1_555
O1F Li1F 1_555 1_555

#END
