
#######################################################################
#
#                 Cambridge Crystallographic Data Centre
#                                CCDC 
#
#######################################################################
#
# If this CIF has been generated from an entry in the Cambridge 
# Structural Database, then it will include bibliographic, chemical, 
# crystal, experimental, refinement or atomic coordinate data resulting 
# from the CCDC's data processing and validation procedures.
#
#######################################################################

data_YOTVUA
_symmetry_cell_setting           triclinic
_symmetry_space_group_name_H-M   'P -1'
_symmetry_Int_Tables_number      2
_space_group_name_Hall           '-P 1'
loop_
_symmetry_equiv_pos_site_id
_symmetry_equiv_pos_as_xyz
1 x,y,z
2 -x,-y,-z
_cell_length_a                   7.5490(15)
_cell_length_b                   11.126(2)
_cell_length_c                   13.287(3)
_cell_angle_alpha                103.367(6)
_cell_angle_beta                 105.626(6)
_cell_angle_gamma                93.767(6)
_cell_volume                     1035.82
loop_
_atom_site_label
_atom_site_type_symbol
_atom_site_fract_x
_atom_site_fract_y
_atom_site_fract_z
Ag1 Ag 0.32225(5) 0.04916(3) 0.51795(3)
O1 O 0.7628(5) 0.4059(3) 1.0886(2)
C1 C 0.7815(5) 0.5072(4) 1.0708(3)
C2 C 0.8398(5) 0.6237(4) 1.1619(3)
C3 C 0.8469(5) 0.7486(4) 1.1354(3)
H1 H 0.9719 0.7749 1.1352
H2 H 0.8170 0.8101 1.1909
C4 C 0.7122(5) 0.7428(4) 1.0263(3)
H3 H 0.7215 0.8238 1.0112
H4 H 0.5862 0.7215 1.0275
C5 C 0.7552(5) 0.6454(4) 0.9377(3)
H5 H 0.6677 0.6430 0.8685
H6 H 0.8787 0.6700 0.9343
C6 C 0.7451(5) 0.5168(4) 0.9562(3)
N1 N 1.1301(4) 0.8826(3) 1.4903(3)
C7 C 0.9452(5) 0.6935(4) 1.3686(3)
C8 C 1.0551(5) 0.8072(4) 1.3894(3)
H7 H 1.0780 0.8323 1.3315
C9 C 1.0919(6) 0.8459(4) 1.5731(3)
H8 H 1.1427 0.8968 1.6429
C10 C 0.9812(6) 0.7364(4) 1.5586(3)
H9 H 0.9544 0.7156 1.6172
C11 C 0.9110(5) 0.6587(4) 1.4571(3)
H10 H 0.8406 0.5826 1.4467
C12 C 0.8766(5) 0.6063(4) 1.2610(3)
H11 H 0.8547 0.5235 1.2621
N2 N 0.4988(4) 0.2270(3) 0.5938(3)
C13 C 0.6514(5) 0.3839(4) 0.7611(3)
C14 C 0.5556(5) 0.2647(4) 0.7018(3)
H12 H 0.5304 0.2089 0.7402
C15 C 0.5408(5) 0.3071(4) 0.5398(3)
H13 H 0.5011 0.2832 0.4646
C16 C 0.6399(5) 0.4228(4) 0.5910(3)
H14 H 0.6690 0.4751 0.5506
C17 C 0.6966(5) 0.4618(4) 0.7025(3)
H15 H 0.7648 0.5401 0.7377
C18 C 0.7009(5) 0.4086(4) 0.8800(3)
H16 H 0.7015 0.3378 0.9060
O2 O 0.2158(4) 0.0112(3) 0.3044(2)
O3 O 0.3406(4) 0.1982(3) 0.2697(2)
O4 O 0.5141(4) 0.0224(3) 0.2699(2)
S1 S 0.33226(15) 0.06384(12) 0.24947(8)
C19 C -0.0722(5) 0.0917(4) 0.1156(3)
H17 H -0.0242 0.1231 0.1902
C20 C 0.0376(5) 0.0244(3) 0.0571(3)
C21 C 0.2216(5) 0.0021(3) 0.1073(3)
C22 C 0.3190(5) -0.0633(4) 0.0464(3)
H18 H 0.4383 -0.0765 0.0802
C23 C 0.2452(6) -0.1113(4) -0.0654(3)
H19 H 0.3145 -0.1564 -0.1051
O2A O -0.2158(4) -0.0112(3) -0.3044(2)
O3A O -0.3406(4) -0.1982(3) -0.2697(2)
O4A O -0.5141(4) -0.0224(3) -0.2699(2)
S1A S -0.33226(15) -0.06384(12) -0.24947(8)
C19A C 0.0722(5) -0.0917(4) -0.1156(3)
H17A H 0.0242 -0.1231 -0.1902
C20A C -0.0376(5) -0.0244(3) -0.0571(3)
C21A C -0.2216(5) -0.0021(3) -0.1073(3)
C22A C -0.3190(5) 0.0633(4) -0.0464(3)
H18A H -0.4383 0.0765 -0.0802
C23A C -0.2452(6) 0.1113(4) 0.0654(3)
H19A H -0.3145 0.1564 0.1051
Ag1A Ag -0.32225(5) -0.04916(3) -0.51795(3)
O1A O -0.7628(5) -0.4059(3) -1.0886(2)
C1A C -0.7815(5) -0.5072(4) -1.0708(3)
C2A C -0.8398(5) -0.6237(4) -1.1619(3)
C3A C -0.8469(5) -0.7486(4) -1.1354(3)
H1A H -0.9719 -0.7749 -1.1352
H2A H -0.8170 -0.8101 -1.1909
C4A C -0.7122(5) -0.7428(4) -1.0263(3)
H3A H -0.7215 -0.8238 -1.0112
H4A H -0.5862 -0.7215 -1.0275
C5A C -0.7552(5) -0.6454(4) -0.9377(3)
H5A H -0.6677 -0.6430 -0.8685
H6A H -0.8787 -0.6700 -0.9343
C6A C -0.7451(5) -0.5168(4) -0.9562(3)
N1A N -1.1301(4) -0.8826(3) -1.4903(3)
C7A C -0.9452(5) -0.6935(4) -1.3686(3)
C8A C -1.0551(5) -0.8072(4) -1.3894(3)
H7A H -1.0780 -0.8323 -1.3315
C9A C -1.0919(6) -0.8459(4) -1.5731(3)
H8A H -1.1427 -0.8968 -1.6429
C10A C -0.9812(6) -0.7364(4) -1.5586(3)
H9A H -0.9544 -0.7156 -1.6172
C11A C -0.9110(5) -0.6587(4) -1.4571(3)
H10A H -0.8406 -0.5826 -1.4467
C12A C -0.8766(5) -0.6063(4) -1.2610(3)
H11A H -0.8547 -0.5235 -1.2621
N2A N -0.4988(4) -0.2270(3) -0.5938(3)
C13A C -0.6514(5) -0.3839(4) -0.7611(3)
C14A C -0.5556(5) -0.2647(4) -0.7018(3)
H12A H -0.5304 -0.2089 -0.7402
C15A C -0.5408(5) -0.3071(4) -0.5398(3)
H13A H -0.5011 -0.2832 -0.4646
C16A C -0.6399(5) -0.4228(4) -0.5910(3)
H14A H -0.6690 -0.4751 -0.5506
C17A C -0.6966(5) -0.4618(4) -0.7025(3)
H15A H -0.7648 -0.5401 -0.7377
C18A C -0.7009(5) -0.4086(4) -0.8800(3)
H16A H -0.7015 -0.3378 -0.9060
Ag1_2 Ag -0.67775(5) 0.04916(3) -0.48205(3)
Ag1_3 Ag 1.32225(5) 1.04916(3) 1.51795(3)
Ag1A_2 Ag -1.32225(5) -1.04916(3) -1.51795(3)
Ag1A_3 Ag 0.67775(5) -0.04916(3) 0.48205(3)
N1_2 N 0.1301(4) -0.1174(3) 0.4903(3)
N1A_2 N -0.1301(4) 0.1174(3) -0.4903(3)
O5 O 0.6644(5) 0.3531(4) 0.2916(3)
loop_
_geom_bond_atom_site_label_1
_geom_bond_atom_site_label_2
_geom_bond_site_symmetry_1
_geom_bond_site_symmetry_2
Ag1 N2 1_555 1_555
O1 C1 1_555 1_555
C1 C2 1_555 1_555
C2 C3 1_555 1_555
C3 H1 1_555 1_555
H2 C3 1_555 1_555
C4 C3 1_555 1_555
H3 C4 1_555 1_555
H4 C4 1_555 1_555
C5 C4 1_555 1_555
H5 C5 1_555 1_555
H6 C5 1_555 1_555
C6 C1 1_555 1_555
N1 C8 1_555 1_555
C7 C8 1_555 1_555
C8 H7 1_555 1_555
C9 N1 1_555 1_555
H8 C9 1_555 1_555
C10 C9 1_555 1_555
H9 C10 1_555 1_555
C11 C7 1_555 1_555
H10 C11 1_555 1_555
C12 C2 1_555 1_555
H11 C12 1_555 1_555
N2 C14 1_555 1_555
C13 C14 1_555 1_555
C14 H12 1_555 1_555
C15 N2 1_555 1_555
H13 C15 1_555 1_555
C16 C15 1_555 1_555
H14 C16 1_555 1_555
C17 C13 1_555 1_555
H15 C17 1_555 1_555
C18 C6 1_555 1_555
H16 C18 1_555 1_555
O2 Ag1 1_555 1_555
O3 S1 1_555 1_555
O4 S1 1_555 1_555
S1 O2 1_555 1_555
C19 H17 1_555 1_555
C20 C19 1_555 1_555
C21 S1 1_555 1_555
C22 C21 1_555 1_555
H18 C22 1_555 1_555
C23 C22 1_555 1_555
H19 C23 1_555 1_555
O2A S1A 1_555 1_555
O3A S1A 1_555 1_555
O4A S1A 1_555 1_555
S1A C21A 1_555 1_555
C19A C23 1_555 1_555
H17A C19A 1_555 1_555
C20A C20 1_555 1_555
C21A C20A 1_555 1_555
C22A C21A 1_555 1_555
H18A C22A 1_555 1_555
C23A C19 1_555 1_555
H19A C23A 1_555 1_555
Ag1A O2A 1_555 1_555
O1A C1A 1_555 1_555
C1A C2A 1_555 1_555
C2A C3A 1_555 1_555
C3A H1A 1_555 1_555
H2A C3A 1_555 1_555
C4A C3A 1_555 1_555
H3A C4A 1_555 1_555
H4A C4A 1_555 1_555
C5A C4A 1_555 1_555
H5A C5A 1_555 1_555
H6A C5A 1_555 1_555
C6A C1A 1_555 1_555
N1A C8A 1_555 1_555
C7A C8A 1_555 1_555
C8A H7A 1_555 1_555
C9A N1A 1_555 1_555
H8A C9A 1_555 1_555
C10A C9A 1_555 1_555
H9A C10A 1_555 1_555
C11A C7A 1_555 1_555
H10A C11A 1_555 1_555
C12A C2A 1_555 1_555
H11A C12A 1_555 1_555
N2A Ag1A 1_555 1_555
C13A C14A 1_555 1_555
C14A N2A 1_555 1_555
H12A C14A 1_555 1_555
C15A N2A 1_555 1_555
H13A C15A 1_555 1_555
C16A C15A 1_555 1_555
H14A C16A 1_555 1_555
C17A C13A 1_555 1_555
H15A C17A 1_555 1_555
C18A C6A 1_555 1_555
H16A C18A 1_555 1_555
Ag1_2 Ag1A 1_555 1_555
Ag1_3 N1 1_555 1_555
Ag1A_2 N1A 1_555 1_555
Ag1A_3 Ag1 1_555 1_555
N1_2 Ag1 1_555 1_555
N1A_2 Ag1A 1_555 1_555
C5 C6 1_555 1_555
C7 C12 1_555 1_555
C10 C11 1_555 1_555
C13 C18 1_555 1_555
C16 C17 1_555 1_555
C20 C21 1_555 1_555
C19A C20A 1_555 1_555
C22A C23A 1_555 1_555
C5A C6A 1_555 1_555
C7A C12A 1_555 1_555
C10A C11A 1_555 1_555
C13A C18A 1_555 1_555
C16A C17A 1_555 1_555

#END
