
#######################################################################
#
#                 Cambridge Crystallographic Data Centre
#                                CCDC 
#
#######################################################################
#
# If this CIF has been generated from an entry in the Cambridge 
# Structural Database, then it will include bibliographic, chemical, 
# crystal, experimental, refinement or atomic coordinate data resulting 
# from the CCDC's data processing and validation procedures.
#
#######################################################################

data_YOTVOU
_symmetry_cell_setting           monoclinic
_symmetry_space_group_name_H-M   'C 2/c'
_symmetry_Int_Tables_number      15
_space_group_name_Hall           '-C 2yn'
loop_
_symmetry_equiv_pos_site_id
_symmetry_equiv_pos_as_xyz
1 x,y,z
2 -x,y,1/2-z
3 1/2+x,1/2+y,z
4 1/2-x,1/2+y,1/2-z
5 -x,-y,-z
6 x,-y,1/2+z
7 1/2-x,1/2-y,-z
8 1/2+x,1/2-y,1/2+z
_cell_length_a                   24.0884(16)
_cell_length_b                   10.7929(8)
_cell_length_c                   16.1990(11)
_cell_angle_alpha                90
_cell_angle_beta                 90.677(2)
_cell_angle_gamma                90
_cell_volume                     4211.18
loop_
_atom_site_label
_atom_site_type_symbol
_atom_site_fract_x
_atom_site_fract_y
_atom_site_fract_z
Ag1 Ag 0.039481(13) 0.99083(3) 0.07634(2)
N1 N -0.02796(12) 0.9228(3) 0.14997(19)
O1 O -0.19910(14) 1.2994(3) 0.3178(2)
C1 C -0.21399(17) 1.1941(4) 0.3342(2)
C2 C -0.18498(16) 1.0772(3) 0.3109(2)
C3 C -0.21699(18) 0.9693(4) 0.3437(3)
H1 H -0.1948 0.9242 0.3840
H2 H -0.2271 0.9132 0.2992
C4 C -0.2689(2) 1.0217(4) 0.3838(3)
H3 H -0.3019 0.9942 0.3541
H4 H -0.2713 0.9940 0.4406
C5 C -0.26448(15) 1.1605(3) 0.3805(2)
C6 C -0.10543(16) 0.9772(3) 0.2369(2)
C7 C -0.06149(17) 1.0065(3) 0.1845(3)
H5 H -0.0552 1.0897 0.1729
C8 C -0.03686(16) 0.8021(4) 0.1676(2)
H6 H -0.0140 0.7426 0.1441
C9 C -0.07814(17) 0.7647(4) 0.2186(3)
H7 H -0.0832 0.6808 0.2292
C10 C -0.11261(16) 0.8513(4) 0.2548(3)
H8 H -0.1403 0.8261 0.2906
C11 C -0.13879(16) 1.0799(4) 0.2674(2)
H9 H -0.1258 1.1585 0.2544
N2 N -0.41927(13) 1.3372(3) 0.5374(2)
C12 C -0.34796(16) 1.2319(3) 0.4608(2)
C13 C -0.37198(16) 1.3376(4) 0.4930(2)
H10 H -0.3547 1.4132 0.4836
C14 C -0.44361(18) 1.2283(4) 0.5508(3)
H11 H -0.4763 1.2262 0.5807
C15 C -0.42185(19) 1.1180(4) 0.5218(3)
H12 H -0.4393 1.0432 0.5334
C16 C -0.37494(18) 1.1201(4) 0.4764(3)
H13 H -0.3607 1.0465 0.4555
C17 C -0.29721(16) 1.2464(4) 0.4133(2)
H14 H -0.2861 1.3278 0.4047
S1 S 0.10658(4) 0.74535(9) -0.00569(7)
O2 O 0.10030(13) 0.6956(3) -0.0879(2)
O3 O 0.07105(12) 0.6897(3) 0.0546(2)
O4 O 0.10334(13) 0.8806(3) -0.0054(2)
C18 C 0.17628(15) 0.7115(3) 0.0258(2)
C19 C 0.18370(16) 0.6339(3) 0.0928(2)
H15 H 0.1530 0.6004 0.1189
C20 C 0.23696(18) 0.6055(4) 0.1213(3)
H16 H 0.2416 0.5521 0.1659
C21 C 0.22299(15) 0.7642(3) -0.0149(2)
C22 C 0.21735(17) 0.8445(4) -0.0841(2)
H17 H 0.1821 0.8633 -0.1046
S1F S 0.39342(4) 0.75465(9) 0.00569(7)
O2F O 0.39970(13) 0.8044(3) 0.0879(2)
O3F O 0.42895(12) 0.8103(3) -0.0546(2)
O4F O 0.39666(13) 0.6194(3) 0.0054(2)
C18F C 0.32372(15) 0.7885(3) -0.0258(2)
C19F C 0.31630(16) 0.8661(3) -0.0928(2)
H15F H 0.3470 0.8996 -0.1189
C20F C 0.26304(18) 0.8945(4) -0.1213(3)
H16F H 0.2584 0.9479 -0.1659
C21F C 0.27701(15) 0.7358(3) 0.0149(2)
C22F C 0.28265(17) 0.6555(4) 0.0841(2)
H17F H 0.3179 0.6367 0.1046
Ag1D Ag -0.039481(13) 1.00917(3) -0.07634(2)
N1D N 0.02796(12) 1.0772(3) -0.14997(19)
O1D O 0.19910(14) 0.7006(3) -0.3178(2)
C1D C 0.21399(17) 0.8059(4) -0.3342(2)
C2D C 0.18498(16) 0.9228(3) -0.3109(2)
C3D C 0.21699(18) 1.0307(4) -0.3437(3)
H1D H 0.1948 1.0758 -0.3840
H2D H 0.2271 1.0868 -0.2992
C4D C 0.2689(2) 0.9783(4) -0.3838(3)
H3D H 0.3019 1.0058 -0.3541
H4D H 0.2713 1.0060 -0.4406
C5D C 0.26448(15) 0.8395(3) -0.3805(2)
C6D C 0.10543(16) 1.0228(3) -0.2369(2)
C7D C 0.06149(17) 0.9935(3) -0.1845(3)
H5D H 0.0552 0.9103 -0.1729
C8D C 0.03686(16) 1.1979(4) -0.1676(2)
H6D H 0.0140 1.2574 -0.1441
C9D C 0.07814(17) 1.2353(4) -0.2186(3)
H7D H 0.0832 1.3192 -0.2292
C10D C 0.11261(16) 1.1487(4) -0.2548(3)
H8D H 0.1403 1.1739 -0.2906
C11D C 0.13879(16) 0.9201(4) -0.2674(2)
H9D H 0.1258 0.8415 -0.2544
N2D N 0.41927(13) 0.6628(3) -0.5374(2)
C12D C 0.34796(16) 0.7681(3) -0.4608(2)
C13D C 0.37198(16) 0.6624(4) -0.4930(2)
H10D H 0.3547 0.5868 -0.4836
C14D C 0.44361(18) 0.7717(4) -0.5508(3)
H11D H 0.4763 0.7738 -0.5807
C15D C 0.42185(19) 0.8820(4) -0.5218(3)
H12D H 0.4393 0.9568 -0.5334
C16D C 0.37494(18) 0.8799(4) -0.4764(3)
H13D H 0.3607 0.9535 -0.4555
C17D C 0.29721(16) 0.7536(4) -0.4133(2)
H14D H 0.2861 0.6722 -0.4047
Ag1C Ag 0.460519(13) 0.49083(3) -0.57634(2)
Ag1F Ag 0.460519(13) 0.50917(3) -0.07634(2)
Ag1G Ag -0.460519(13) 1.50917(3) 0.57634(2)
N2C N -0.08073(13) 0.8372(3) -0.0374(2)
N2G N 0.08073(13) 1.1628(3) 0.0374(2)
O4D O -0.10334(13) 1.1194(3) 0.0054(2)
O5 O 0.1059(2) 0.5683(5) -0.2418(3)
O6 O -0.5000 1.2043(10) 0.7500
loop_
_geom_bond_atom_site_label_1
_geom_bond_atom_site_label_2
_geom_bond_site_symmetry_1
_geom_bond_site_symmetry_2
Ag1 N1 1_555 1_555
N1 C7 1_555 1_555
O1 C1 1_555 1_555
C1 C2 1_555 1_555
C2 C3 1_555 1_555
C3 H1 1_555 1_555
H2 C3 1_555 1_555
C4 C3 1_555 1_555
H3 C4 1_555 1_555
H4 C4 1_555 1_555
C5 C1 1_555 1_555
C6 C7 1_555 1_555
C7 H5 1_555 1_555
C8 N1 1_555 1_555
H6 C8 1_555 1_555
C9 C8 1_555 1_555
H7 C9 1_555 1_555
C10 C6 1_555 1_555
H8 C10 1_555 1_555
C11 C2 1_555 1_555
H9 C11 1_555 1_555
N2 C13 1_555 1_555
C12 C13 1_555 1_555
C13 H10 1_555 1_555
C14 N2 1_555 1_555
H11 C14 1_555 1_555
C15 C14 1_555 1_555
H12 C15 1_555 1_555
C16 C12 1_555 1_555
H13 C16 1_555 1_555
C17 C5 1_555 1_555
H14 C17 1_555 1_555
S1 O2 1_555 1_555
O3 S1 1_555 1_555
O4 Ag1 1_555 1_555
C18 S1 1_555 1_555
C19 C18 1_555 1_555
H15 C19 1_555 1_555
C20 C19 1_555 1_555
H16 C20 1_555 1_555
C21 C18 1_555 1_555
C22 C21 1_555 1_555
H17 C22 1_555 1_555
S1F O2F 1_555 1_555
O3F S1F 1_555 1_555
O4F S1F 1_555 1_555
C18F S1F 1_555 1_555
C19F C18F 1_555 1_555
H15F C19F 1_555 1_555
C20F C22 1_555 1_555
H16F C20F 1_555 1_555
C21F C21 1_555 1_555
C22F C20 1_555 1_555
H17F C22F 1_555 1_555
Ag1D Ag1 1_555 1_555
N1D Ag1D 1_555 1_555
O1D C1D 1_555 1_555
C1D C2D 1_555 1_555
C2D C3D 1_555 1_555
C3D H1D 1_555 1_555
H2D C3D 1_555 1_555
C4D C3D 1_555 1_555
H3D C4D 1_555 1_555
H4D C4D 1_555 1_555
C5D C1D 1_555 1_555
C6D C7D 1_555 1_555
C7D N1D 1_555 1_555
H5D C7D 1_555 1_555
C8D N1D 1_555 1_555
H6D C8D 1_555 1_555
C9D C8D 1_555 1_555
H7D C9D 1_555 1_555
C10D C6D 1_555 1_555
H8D C10D 1_555 1_555
C11D C2D 1_555 1_555
H9D C11D 1_555 1_555
N2D C13D 1_555 1_555
C12D C13D 1_555 1_555
C13D H10D 1_555 1_555
C14D N2D 1_555 1_555
H11D C14D 1_555 1_555
C15D C14D 1_555 1_555
H12D C15D 1_555 1_555
C16D C12D 1_555 1_555
H13D C16D 1_555 1_555
C17D C5D 1_555 1_555
H14D C17D 1_555 1_555
Ag1C N2D 1_555 1_555
Ag1F O4F 1_555 1_555
Ag1G N2 1_555 1_555
N2C Ag1D 1_555 1_555
N2G Ag1 1_555 1_555
O4D Ag1D 1_555 1_555
C4 C5 1_555 1_555
C6 C11 1_555 1_555
C9 C10 1_555 1_555
C12 C17 1_555 1_555
C15 C16 1_555 1_555
S1 O4 1_555 1_555
C18F C21F 1_555 1_555
C19F C20F 1_555 1_555
C21F C22F 1_555 1_555
C4D C5D 1_555 1_555
C6D C11D 1_555 1_555
C9D C10D 1_555 1_555
C12D C17D 1_555 1_555
C15D C16D 1_555 1_555

#END
