
#######################################################################
#
#                 Cambridge Crystallographic Data Centre
#                                CCDC 
#
#######################################################################
#
# If this CIF has been generated from an entry in the Cambridge 
# Structural Database, then it will include bibliographic, chemical, 
# crystal, experimental, refinement or atomic coordinate data resulting 
# from the CCDC's data processing and validation procedures.
#
#######################################################################

data_YOTWAH
_symmetry_cell_setting           triclinic
_symmetry_space_group_name_H-M   'P -1'
_symmetry_Int_Tables_number      2
_space_group_name_Hall           '-P 1'
loop_
_symmetry_equiv_pos_site_id
_symmetry_equiv_pos_as_xyz
1 x,y,z
2 -x,-y,-z
_cell_length_a                   7.4241(7)
_cell_length_b                   14.8914(14)
_cell_length_c                   14.959(2)
_cell_angle_alpha                114.498(4)
_cell_angle_beta                 99.310(4)
_cell_angle_gamma                100.904(3)
_cell_volume                     1423.34
loop_
_atom_site_label
_atom_site_type_symbol
_atom_site_fract_x
_atom_site_fract_y
_atom_site_fract_z
O5 O 0.348(2) 0.2661(11) 0.0174(11)
C28 C 1.065(4) 0.112(2) -0.076(2)
O6 O 0.890(2) 0.1150(11) 0.0020(12)
O7 O 0.549(3) 0.9182(18) 0.0584(19)
Ag1 Ag 0.27722(9) 0.46035(5) 0.47052(6)
Ag2 Ag -0.5000 0.5000 0.0000
O1 O 0.3388(8) 0.0573(4) 0.6273(4)
C1 C 0.2703(10) -0.0157(6) 0.5417(7)
C2 C 0.2393(9) 0.0004(6) 0.4488(6)
C3 C 0.1523(11) -0.0914(6) 0.3445(6)
H1 H 0.2534 -0.1120 0.3145
H2 H 0.0756 -0.0716 0.3008
C4 C 0.0304(10) -0.1812(5) 0.3491(5)
H3 H -0.0777 -0.1629 0.3730
H4 H -0.0179 -0.2389 0.2812
C5 C 0.1418(10) -0.2125(5) 0.4196(6)
H5 H 0.0596 -0.2706 0.4210
H6 H 0.2462 -0.2341 0.3938
C6 C 0.2193(9) -0.1260(5) 0.5255(6)
N1 N 0.2891(9) 0.3056(5) 0.3931(6)
C7 C 0.2875(10) 0.1469(6) 0.3997(7)
C8 C 0.2914(9) 0.2511(5) 0.4445(6)
H7 H 0.2958 0.2834 0.5133
C9 C 0.2867(11) 0.2594(7) 0.2951(8)
H8 H 0.2864 0.2972 0.2588
C10 C 0.2845(11) 0.1562(7) 0.2447(7)
H9 H 0.2838 0.1260 0.1763
C11 C 0.2835(11) 0.1006(6) 0.2981(7)
H10 H 0.2802 0.0316 0.2658
C12 C 0.2934(9) 0.0996(6) 0.4685(6)
H11 H 0.3430 0.1461 0.5373
N2 N 0.2240(8) -0.4017(5) 0.5743(5)
C13 C 0.2195(10) -0.2272(6) 0.6268(7)
C14 C 0.2393(9) -0.3205(6) 0.5572(6)
H12 H 0.2640 -0.3256 0.4965
C15 C 0.1870(11) -0.3974(7) 0.6592(8)
H13 H 0.1737 -0.4554 0.6697
C16 C 0.1678(11) -0.3079(8) 0.7328(7)
H14 H 0.1409 -0.3060 0.7920
C17 C 0.1885(10) -0.2217(6) 0.7180(7)
H15 H 0.1819 -0.1603 0.7685
C18 C 0.2449(9) -0.1341(5) 0.6124(6)
H16 H 0.2842 -0.0721 0.6721
S1 S 0.4615(3) 0.53811(18) 0.28361(18)
O2 O 0.4116(8) 0.4342(4) 0.2064(4)
O3 O 0.3627(7) 0.5505(4) 0.3627(4)
O4 O 0.6650(7) 0.5879(4) 0.3258(4)
N3 N -0.2038(11) 0.5416(8) 0.0790(6)
C19 C -0.0716(16) 0.6143(7) 0.0803(7)
H17 H -0.1092 0.6528 0.0491
C20 C -0.1497(13) 0.4903(8) 0.1278(7)
H18 H -0.2433 0.4404 0.1296
C21 C 0.0358(12) 0.5066(7) 0.1756(6)
H19 H 0.0662 0.4675 0.2076
C22 C 0.1796(11) 0.5833(6) 0.1755(5)
C23 C 0.1237(12) 0.6379(7) 0.1258(6)
C24 C 0.2568(16) 0.7157(7) 0.1228(6)
H20 H 0.2178 0.7519 0.0892
C25 C 0.4413(15) 0.7378(7) 0.1688(7)
H21 H 0.5310 0.7895 0.1670
C26 C 0.4979(12) 0.6843(6) 0.2184(6)
H22 H 0.6264 0.7018 0.2508
C27 C 0.3763(11) 0.6079(6) 0.2223(5)
Ag1A Ag -1.27722(9) 0.53965(5) -0.47052(6)
O1A O -1.3388(8) 0.9427(4) -0.6273(4)
C1A C -1.2703(10) 1.0157(6) -0.5417(7)
C2A C -1.2393(9) 0.9996(6) -0.4488(6)
C3A C -1.1523(11) 1.0914(6) -0.3445(6)
H1A H -1.2534 1.1120 -0.3145
H2A H -1.0756 1.0716 -0.3008
C4A C -1.0304(10) 1.1812(5) -0.3491(5)
H3A H -0.9223 1.1629 -0.3730
H4A H -0.9821 1.2389 -0.2812
C5A C -1.1418(10) 1.2125(5) -0.4196(6)
H5A H -1.0596 1.2706 -0.4210
H6A H -1.2462 1.2341 -0.3938
C6A C -1.2193(9) 1.1260(5) -0.5255(6)
N1A N -1.2891(9) 0.6944(5) -0.3931(6)
C7A C -1.2875(10) 0.8531(6) -0.3997(7)
C8A C -1.2914(9) 0.7489(5) -0.4445(6)
H7A H -1.2958 0.7166 -0.5133
C9A C -1.2867(11) 0.7406(7) -0.2951(8)
H8A H -1.2864 0.7028 -0.2588
C10A C -1.2845(11) 0.8438(7) -0.2447(7)
H9A H -1.2838 0.8740 -0.1763
C11A C -1.2835(11) 0.8994(6) -0.2981(7)
H10A H -1.2802 0.9684 -0.2658
C12A C -1.2934(9) 0.9004(6) -0.4685(6)
H11A H -1.3430 0.8539 -0.5373
N2A N -1.2240(8) 1.4017(5) -0.5743(5)
C13A C -1.2195(10) 1.2272(6) -0.6268(7)
C14A C -1.2393(9) 1.3205(6) -0.5572(6)
H12A H -1.2640 1.3256 -0.4965
C15A C -1.1870(11) 1.3974(7) -0.6592(8)
H13A H -1.1737 1.4554 -0.6697
C16A C -1.1678(11) 1.3079(8) -0.7328(7)
H14A H -1.1409 1.3060 -0.7920
C17A C -1.1885(10) 1.2217(6) -0.7180(7)
H15A H -1.1819 1.1603 -0.7685
C18A C -1.2449(9) 1.1341(5) -0.6124(6)
H16A H -1.2842 1.0721 -0.6721
S1A S -1.4615(3) 0.46189(18) -0.28361(18)
O2A O -1.4116(8) 0.5658(4) -0.2064(4)
O3A O -1.3627(7) 0.4495(4) -0.3627(4)
O4A O -1.6650(7) 0.4121(4) -0.3258(4)
N3A N -0.7962(11) 0.4584(8) -0.0790(6)
C19A C -0.9284(16) 0.3857(7) -0.0803(7)
H17A H -0.8908 0.3472 -0.0491
C20A C -0.8503(13) 0.5097(8) -0.1278(7)
H18A H -0.7567 0.5596 -0.1296
C21A C -1.0358(12) 0.4934(7) -0.1756(6)
H19A H -1.0662 0.5325 -0.2076
C22A C -1.1796(11) 0.4167(6) -0.1755(5)
C23A C -1.1237(12) 0.3621(7) -0.1258(6)
C24A C -1.2568(16) 0.2843(7) -0.1228(6)
H20A H -1.2178 0.2481 -0.0892
C25A C -1.4413(15) 0.2622(7) -0.1688(7)
H21A H -1.5310 0.2105 -0.1670
C26A C -1.4979(12) 0.3157(6) -0.2184(6)
H22A H -1.6264 0.2982 -0.2508
C27A C -1.3763(11) 0.3921(6) -0.2223(5)
Ag1_2 Ag -1.72278(9) 0.46035(5) -0.52948(6)
Ag1_3 Ag 0.27722(9) -0.53965(5) 0.47052(6)
Ag1A_2 Ag -1.27722(9) 1.53965(5) -0.47052(6)
Ag1A_3 Ag 0.72278(9) 0.53965(5) 0.52948(6)
N2_2 N 0.2240(8) 0.5983(5) 0.5743(5)
N2A_2 N -1.2240(8) 0.4017(5) -0.5743(5)
loop_
_geom_bond_atom_site_label_1
_geom_bond_atom_site_label_2
_geom_bond_site_symmetry_1
_geom_bond_site_symmetry_2
Ag1 N1 1_555 1_555
Ag2 N3 1_555 1_555
O1 C1 1_555 1_555
C1 C2 1_555 1_555
C2 C3 1_555 1_555
C3 H1 1_555 1_555
H2 C3 1_555 1_555
C4 C3 1_555 1_555
H3 C4 1_555 1_555
H4 C4 1_555 1_555
C5 C4 1_555 1_555
H5 C5 1_555 1_555
H6 C5 1_555 1_555
C6 C1 1_555 1_555
N1 C8 1_555 1_555
C7 C8 1_555 1_555
C8 H7 1_555 1_555
C9 N1 1_555 1_555
H8 C9 1_555 1_555
C10 C9 1_555 1_555
H9 C10 1_555 1_555
C11 C7 1_555 1_555
H10 C11 1_555 1_555
C12 C2 1_555 1_555
H11 C12 1_555 1_555
N2 C14 1_555 1_555
C13 C14 1_555 1_555
C14 H12 1_555 1_555
C15 N2 1_555 1_555
H13 C15 1_555 1_555
C16 C15 1_555 1_555
H14 C16 1_555 1_555
C17 C13 1_555 1_555
H15 C17 1_555 1_555
C18 C6 1_555 1_555
H16 C18 1_555 1_555
S1 O2 1_555 1_555
O3 Ag1 1_555 1_555
O4 S1 1_555 1_555
N3 C19 1_555 1_555
C19 H17 1_555 1_555
C20 N3 1_555 1_555
H18 C20 1_555 1_555
C21 C20 1_555 1_555
H19 C21 1_555 1_555
C22 C21 1_555 1_555
C23 C19 1_555 1_555
C24 C23 1_555 1_555
H20 C24 1_555 1_555
C25 C24 1_555 1_555
H21 C25 1_555 1_555
C26 C25 1_555 1_555
H22 C26 1_555 1_555
C27 S1 1_555 1_555
C28 O6 1_555 1_555
Ag1A N1A 1_555 1_555
O1A C1A 1_555 1_555
C1A C2A 1_555 1_555
C2A C3A 1_555 1_555
C3A H1A 1_555 1_555
H2A C3A 1_555 1_555
C4A C3A 1_555 1_555
H3A C4A 1_555 1_555
H4A C4A 1_555 1_555
C5A C4A 1_555 1_555
H5A C5A 1_555 1_555
H6A C5A 1_555 1_555
C6A C1A 1_555 1_555
N1A C8A 1_555 1_555
C7A C8A 1_555 1_555
C8A H7A 1_555 1_555
C9A N1A 1_555 1_555
H8A C9A 1_555 1_555
C10A C9A 1_555 1_555
H9A C10A 1_555 1_555
C11A C7A 1_555 1_555
H10A C11A 1_555 1_555
C12A C2A 1_555 1_555
H11A C12A 1_555 1_555
N2A C14A 1_555 1_555
C13A C14A 1_555 1_555
C14A H12A 1_555 1_555
C15A N2A 1_555 1_555
H13A C15A 1_555 1_555
C16A C15A 1_555 1_555
H14A C16A 1_555 1_555
C17A C13A 1_555 1_555
H15A C17A 1_555 1_555
C18A C6A 1_555 1_555
H16A C18A 1_555 1_555
S1A O2A 1_555 1_555
O3A Ag1A 1_555 1_555
O4A S1A 1_555 1_555
N3A Ag2 1_555 1_555
C19A N3A 1_555 1_555
H17A C19A 1_555 1_555
C20A N3A 1_555 1_555
H18A C20A 1_555 1_555
C21A C20A 1_555 1_555
H19A C21A 1_555 1_555
C22A C21A 1_555 1_555
C23A C19A 1_555 1_555
C24A C23A 1_555 1_555
H20A C24A 1_555 1_555
C25A C24A 1_555 1_555
H21A C25A 1_555 1_555
C26A C25A 1_555 1_555
H22A C26A 1_555 1_555
C27A S1A 1_555 1_555
Ag1_2 Ag1A 1_555 1_555
Ag1_3 N2 1_555 1_555
Ag1A_2 N2A 1_555 1_555
Ag1A_3 Ag1 1_555 1_555
N2_2 Ag1 1_555 1_555
N2A_2 Ag1A 1_555 1_555
C5 C6 1_555 1_555
C7 C12 1_555 1_555
C10 C11 1_555 1_555
C13 C18 1_555 1_555
C16 C17 1_555 1_555
S1 O3 1_555 1_555
C22 C23 1_555 1_555
C22 C27 1_555 1_555
C26 C27 1_555 1_555
C5A C6A 1_555 1_555
C7A C12A 1_555 1_555
C10A C11A 1_555 1_555
C13A C18A 1_555 1_555
C16A C17A 1_555 1_555
S1A O3A 1_555 1_555
C22A C23A 1_555 1_555
C22A C27A 1_555 1_555
C26A C27A 1_555 1_555

#END
