
#######################################################################
#
#                 Cambridge Crystallographic Data Centre
#                                CCDC 
#
#######################################################################
#
# If this CIF has been generated from an entry in the Cambridge 
# Structural Database, then it will include bibliographic, chemical, 
# crystal, experimental, refinement or atomic coordinate data resulting 
# from the CCDC's data processing and validation procedures.
#
#######################################################################

data_YOVBUI
_symmetry_cell_setting           monoclinic
_symmetry_space_group_name_H-M   'P 21/a'
_symmetry_Int_Tables_number      14
_space_group_name_Hall           '-P 2yab'
loop_
_symmetry_equiv_pos_site_id
_symmetry_equiv_pos_as_xyz
1 x,y,z
2 1/2-x,1/2+y,-z
3 -x,-y,-z
4 1/2+x,1/2-y,z
_cell_length_a                   8.8855(13)
_cell_length_b                   13.2788(15)
_cell_length_c                   13.4533(19)
_cell_angle_alpha                90
_cell_angle_beta                 93.374(12)
_cell_angle_gamma                90
_cell_volume                     1584.59
loop_
_atom_site_label
_atom_site_type_symbol
_atom_site_fract_x
_atom_site_fract_y
_atom_site_fract_z
C1 C 0.185(2) 0.0834(13) 0.0626(14)
C2 C 0.319(2) 0.0777(18) 0.0111(15)
H1 H 0.4043 0.0513 0.0454
C3 C 0.333(3) 0.1069(17) -0.082(2)
H2 H 0.4231 0.0961 -0.1120
C4 C 0.212(2) 0.1544(15) -0.1348(17)
H3 H 0.2237 0.1802 -0.1982
C5 C 0.079(2) 0.1618(16) -0.0919(17)
H4 H -0.0038 0.1875 -0.1289
C6 C 0.062(2) 0.1321(14) 0.0062(17)
C7 C -0.084(2) 0.1500(15) 0.0436(15)
H5 H -0.1594 0.1729 -0.0018
C8 C -0.273(2) 0.1618(19) 0.1615(19)
H6 H -0.3421 0.1569 0.1029
H7 H -0.2755 0.2306 0.1855
C9 C -0.327(2) 0.0897(15) 0.2435(16)
C10 C -0.501(4) 0.078(2) 0.263(2)
H8 H -0.5805 0.1087 0.2262
C11 C -0.514(3) 0.020(3) 0.334(3)
H9 H -0.6118 0.0090 0.3521
C12 C -0.403(3) -0.029(2) 0.392(2)
H10 H -0.4270 -0.0698 0.4448
C13 C -0.259(2) -0.017(2) 0.3675(18)
H11 H -0.1854 -0.0549 0.4029
C14 C 0.148(2) 0.2055(16) 0.4119(16)
C15 C 0.358(2) 0.3739(17) 0.624(2)
Au1 Au 0.25501(9) 0.28800(6) 0.52120(7)
N1 N -0.1200(14) 0.1371(11) 0.1340(12)
N2 N -0.2146(17) 0.0430(12) 0.2982(13)
N3 N 0.0958(19) 0.1580(13) 0.3528(14)
N4 N 0.4161(17) 0.4299(12) 0.6814(15)
O1 O 0.1799(15) 0.0574(11) 0.1522(10)
Zn1 Zn 0.0112(2) 0.05976(16) 0.24345(18)
N4A N 0.0839(17) -0.0701(12) 0.3186(15)
Zn1A Zn 0.4888(2) 0.55976(16) 0.75655(18)
loop_
_geom_bond_atom_site_label_1
_geom_bond_atom_site_label_2
_geom_bond_site_symmetry_1
_geom_bond_site_symmetry_2
C1 C2 1_555 1_555
C2 H1 1_555 1_555
C3 C2 1_555 1_555
H2 C3 1_555 1_555
C4 C3 1_555 1_555
H3 C4 1_555 1_555
C5 C4 1_555 1_555
H4 C5 1_555 1_555
C6 C1 1_555 1_555
C7 C6 1_555 1_555
H5 C7 1_555 1_555
C8 H6 1_555 1_555
H7 C8 1_555 1_555
C9 C8 1_555 1_555
C10 C9 1_555 1_555
H8 C10 1_555 1_555
C11 C10 1_555 1_555
H9 C11 1_555 1_555
C12 C11 1_555 1_555
H10 C12 1_555 1_555
C13 C12 1_555 1_555
H11 C13 1_555 1_555
C14 Au1 1_555 1_555
C15 Au1 1_555 1_555
N1 C7 1_555 1_555
N2 C9 1_555 1_555
N3 C14 1_555 1_555
N4 C15 1_555 1_555
O1 C1 1_555 1_555
Zn1 N1 1_555 1_555
N4A Zn1 1_555 1_555
Zn1A N4 1_555 1_555
C5 C6 1_555 1_555
C8 N1 1_555 1_555
C13 N2 1_555 1_555
N2 Zn1 1_555 1_555
N3 Zn1 1_555 1_555
O1 Zn1 1_555 1_555

#END
