
#######################################################################
#
#                 Cambridge Crystallographic Data Centre
#                                CCDC 
#
#######################################################################
#
# If this CIF has been generated from an entry in the Cambridge 
# Structural Database, then it will include bibliographic, chemical, 
# crystal, experimental, refinement or atomic coordinate data resulting 
# from the CCDC's data processing and validation procedures.
#
#######################################################################

data_YOVFOG
_symmetry_cell_setting           monoclinic
_symmetry_space_group_name_H-M   'P 21/n'
_symmetry_Int_Tables_number      14
_space_group_name_Hall           '-P 2yn'
loop_
_symmetry_equiv_pos_site_id
_symmetry_equiv_pos_as_xyz
1 x,y,z
2 1/2-x,1/2+y,1/2-z
3 -x,-y,-z
4 1/2+x,1/2-y,1/2+z
_cell_length_a                   12.50(5)
_cell_length_b                   9.96(4)
_cell_length_c                   11.72(5)
_cell_angle_alpha                90
_cell_angle_beta                 107.413(4)
_cell_angle_gamma                90
_cell_volume                     1392.27
loop_
_atom_site_label
_atom_site_type_symbol
_atom_site_fract_x
_atom_site_fract_y
_atom_site_fract_z
Yb1 Yb 0.7223(3) 0.1634(3) 0.7558(2)
P1 P 0.3944(12) 0.1016(14) 1.1194(15)
P2 P 0.5472(16) 0.4304(16) 0.6877(16)
P3 P 0.1510(16) 0.5965(17) 1.0222(17)
O1 O 0.401(2) -0.046(2) 1.154(2)
O2 O 0.5229(19) 0.149(3) 1.149(2)
O3 O 0.3213(19) 0.194(2) 1.165(2)
O4 O 0.577(2) 0.287(3) 0.688(3)
O5 O 0.632(2) 0.535(3) 0.660(3)
O6 O 0.428(2) 0.461(2) 0.601(3)
O7 O 0.229(3) 0.714(2) 1.059(3)
O8 O 0.029(2) 0.638(2) 1.020(2)
O9 O 0.188(2) 0.481(2) 1.106(3)
C1 C 0.346(3) 0.103(5) 0.962(4)
C2 C 0.535(4) 0.477(4) 0.829(5)
C3 C 0.142(4) 0.548(4) 0.880(4)
C4 C 0.246(2) 0.310(5) 0.901(2)
C5 C 0.247(5) 0.445(5) 0.869(4)
C6 C 0.340(7) 0.499(6) 0.848(6)
C7 C 0.434(5) 0.419(9) 0.858(6)
C8 C 0.433(3) 0.284(9) 0.890(5)
C9 C 0.340(3) 0.230(6) 0.911(4)
H1 H 0.274(3) 0.080(5) 0.949(4)
H2 H 0.395(3) 0.065(5) 0.944(4)
H3 H 0.5404(19) 0.175(3) 1.243(2)
H4 H 0.519(4) 0.571(4) 0.814(5)
H5 H 0.588(4) 0.451(4) 0.873(5)
H6 H 0.151(4) 0.630(4) 0.823(4)
H7 H 0.077(4) 0.511(4) 0.832(4)
H8 H 0.183(2) 0.297(5) 0.926(2)
H9 H 0.433(2) 0.452(2) 0.521(3)
H10 H 0.332(6) 0.592(6) 0.801(5)
H11 H 0.491(3) 0.243(9) 0.888(5)
H12 H 0.003(2) 0.688(2) 0.951(2)
Yb1A Yb 0.7777(3) 0.6634(3) 0.7442(2)
Yb1B Yb 0.2777(3) -0.1634(3) 1.2442(2)
Yb1B_2 Yb 0.2777(3) 0.8366(3) 1.2442(2)
Yb1C Yb 0.2223(3) 0.3366(3) 1.2558(2)
O1B O 0.599(2) 0.046(2) 0.846(2)
O3C O 0.8213(19) 0.306(2) 0.665(2)
O5A O 0.868(2) 0.035(3) 0.840(3)
O7B O 0.771(3) 0.286(2) 0.941(3)
O9C O 0.688(2) 0.019(2) 0.606(3)
O10 O 0.795(4) 0.664(5) 0.403(4)
loop_
_geom_bond_atom_site_label_1
_geom_bond_atom_site_label_2
_geom_bond_site_symmetry_1
_geom_bond_site_symmetry_2
Yb1 O4 1_555 1_555
P1 O1 1_555 1_555
P2 O4 1_555 1_555
P3 O7 1_555 1_555
O1 Yb1B 1_555 1_555
O2 P1 1_555 1_555
O3 P1 1_555 1_555
O5 P2 1_555 1_555
O6 P2 1_555 1_555
O7 Yb1B_2 1_555 1_555
O8 P3 1_555 1_555
O9 P3 1_555 1_555
C1 P1 1_555 1_555
C2 P2 1_555 1_555
C3 P3 1_555 1_555
C4 C5 1_555 1_555
C5 C3 1_555 1_555
C6 C5 1_555 1_555
C7 C2 1_555 1_555
C8 C7 1_555 1_555
C9 C1 1_555 1_555
H1 C1 1_555 1_555
H2 C1 1_555 1_555
H3 O2 1_555 1_555
H4 C2 1_555 1_555
H5 C2 1_555 1_555
H6 C3 1_555 1_555
H7 C3 1_555 1_555
H8 C4 1_555 1_555
H9 O6 1_555 1_555
H10 C6 1_555 1_555
H11 C8 1_555 1_555
H12 O8 1_555 1_555
Yb1A O5 1_555 1_555
Yb1C O3 1_555 1_555
O1B Yb1 1_555 1_555
O3C Yb1 1_555 1_555
O5A Yb1 1_555 1_555
O7B Yb1 1_555 1_555
O9C Yb1 1_555 1_555
O9 Yb1C 1_555 1_555
C4 C9 1_555 1_555
C6 C7 1_555 1_555
C8 C9 1_555 1_555

#END
