
#######################################################################
#
#                 Cambridge Crystallographic Data Centre
#                                CCDC 
#
#######################################################################
#
# If this CIF has been generated from an entry in the Cambridge 
# Structural Database, then it will include bibliographic, chemical, 
# crystal, experimental, refinement or atomic coordinate data resulting 
# from the CCDC's data processing and validation procedures.
#
#######################################################################

data_YOVKOL
_symmetry_cell_setting           monoclinic
_symmetry_space_group_name_H-M   'C 2/c'
_symmetry_Int_Tables_number      15
_space_group_name_Hall           '-C 2yn'
loop_
_symmetry_equiv_pos_site_id
_symmetry_equiv_pos_as_xyz
1 x,y,z
2 -x,y,1/2-z
3 1/2+x,1/2+y,z
4 1/2-x,1/2+y,1/2-z
5 -x,-y,-z
6 x,-y,1/2+z
7 1/2-x,1/2-y,-z
8 1/2+x,1/2-y,1/2+z
_cell_length_a                   20.5923(15)
_cell_length_b                   10.2400(8)
_cell_length_c                   18.0535(12)
_cell_angle_alpha                90
_cell_angle_beta                 109.631(5)
_cell_angle_gamma                90
_cell_volume                     3585.58
loop_
_atom_site_label
_atom_site_type_symbol
_atom_site_fract_x
_atom_site_fract_y
_atom_site_fract_z
C1 C 0.3845(3) 0.1314(7) 0.8283(4)
C2 C 0.3989(3) 0.2638(7) 0.8456(5)
H1 H 0.4244 0.3094 0.8202
C3 C 0.3761(5) 0.3286(8) 0.8999(6)
H2 H 0.3853 0.4172 0.9093
C4 C 0.3393(5) 0.2613(10) 0.9406(6)
H3 H 0.3256 0.3031 0.9786
C5 C 0.3240(4) 0.1332(10) 0.9229(5)
H4 H 0.2998 0.0881 0.9500
C6 C 0.3432(3) 0.0658(7) 0.8656(4)
C7 C 0.3178(4) -0.0657(7) 0.8474(5)
H5 H 0.3014 -0.1077 0.8833
C8 C 0.2878(4) -0.2596(8) 0.7710(6)
H6 H 0.2458 -0.2589 0.7257
H7 H 0.2767 -0.2915 0.8159
C9 C 0.3407(4) -0.3483(7) 0.7553(6)
H8 H 0.3747 -0.3751 0.8047
H9 H 0.3183 -0.4260 0.7276
C10 C 0.4153(4) -0.3424(6) 0.6800(5)
H10 H 0.4185 -0.4321 0.6885
C11 C 0.4560(3) -0.2863(6) 0.6369(4)
C12 C 0.4859(4) -0.3731(7) 0.5974(5)
H11 H 0.4809 -0.4624 0.6035
C13 C 0.5219(4) -0.3326(8) 0.5506(5)
H12 H 0.5401 -0.3925 0.5243
C14 C 0.5306(4) -0.1980(9) 0.5433(5)
H13 H 0.5545 -0.1682 0.5111
C15 C 0.5042(4) -0.1093(7) 0.5832(5)
H14 H 0.5110 -0.0205 0.5776
C16 C 0.4674(3) -0.1499(6) 0.6323(4)
C17 C 0.2489(3) 0.0535(7) 0.5622(4)
C18 C 0.1006(4) 0.2198(7) 0.3862(4)
Au1 Au 0.176368(13) 0.13839(3) 0.473389(17)
N1 N 0.3159(3) -0.1284(6) 0.7865(4)
N2 N 0.3746(3) -0.2782(6) 0.7078(4)
N3 N 0.2887(3) 0.0026(6) 0.6128(4)
N4 N 0.0565(3) 0.2675(6) 0.3368(4)
O1 O 0.4097(2) 0.0728(4) 0.7780(3)
O2 O 0.4457(2) -0.0604(4) 0.6716(3)
Zn1 Zn 0.36424(3) -0.07691(7) 0.70682(5)
Zn2 Zn 0.5000 0.09426(9) 0.7500
C1A C 0.6155(3) 0.1314(7) 0.6717(4)
C2A C 0.6011(3) 0.2638(7) 0.6544(5)
H1A H 0.5756 0.3094 0.6798
C3A C 0.6239(5) 0.3286(8) 0.6001(6)
H2A H 0.6147 0.4172 0.5907
C4A C 0.6607(5) 0.2613(10) 0.5594(6)
H3A H 0.6744 0.3031 0.5214
C5A C 0.6760(4) 0.1332(10) 0.5771(5)
H4A H 0.7002 0.0881 0.5500
C6A C 0.6568(3) 0.0658(7) 0.6344(4)
C7A C 0.6822(4) -0.0657(7) 0.6526(5)
H5A H 0.6986 -0.1077 0.6167
C8A C 0.7122(4) -0.2596(8) 0.7290(6)
H6A H 0.7542 -0.2589 0.7743
H7A H 0.7233 -0.2915 0.6841
C9A C 0.6593(4) -0.3483(7) 0.7447(6)
H8A H 0.6253 -0.3751 0.6953
H9A H 0.6817 -0.4260 0.7724
C10A C 0.5847(4) -0.3424(6) 0.8200(5)
H10A H 0.5815 -0.4321 0.8115
C11A C 0.5440(3) -0.2863(6) 0.8631(4)
C12A C 0.5141(4) -0.3731(7) 0.9026(5)
H11A H 0.5191 -0.4624 0.8965
C13A C 0.4781(4) -0.3326(8) 0.9494(5)
H12A H 0.4599 -0.3925 0.9757
C14A C 0.4694(4) -0.1980(9) 0.9567(5)
H13A H 0.4455 -0.1682 0.9889
C15A C 0.4958(4) -0.1093(7) 0.9168(5)
H14A H 0.4890 -0.0205 0.9224
C16A C 0.5326(3) -0.1499(6) 0.8677(4)
C17A C 0.7511(3) 0.0535(7) 0.9378(4)
C18A C 0.8994(4) 0.2198(7) 1.1138(4)
Au1A Au 0.823632(13) 0.13839(3) 1.026611(17)
N1A N 0.6841(3) -0.1284(6) 0.7135(4)
N2A N 0.6254(3) -0.2782(6) 0.7922(4)
N3A N 0.7113(3) 0.0026(6) 0.8872(4)
N4A N 0.9435(3) 0.2675(6) 1.1632(4)
O1A O 0.5903(2) 0.0728(4) 0.7220(3)
O2A O 0.5543(2) -0.0604(4) 0.8284(3)
Zn1A Zn 0.63576(3) -0.07691(7) 0.79318(5)
N4F N 0.4435(3) 0.2325(6) 0.6632(4)
N4G N 0.5565(3) 0.2325(6) 0.8368(4)
Zn2F Zn 0.0000 0.40574(9) 0.2500
Zn2F_2 Zn 1.0000 0.40574(9) 1.2500
loop_
_geom_bond_atom_site_label_1
_geom_bond_atom_site_label_2
_geom_bond_site_symmetry_1
_geom_bond_site_symmetry_2
C1 C2 1_555 1_555
C2 H1 1_555 1_555
C3 C2 1_555 1_555
H2 C3 1_555 1_555
C4 C3 1_555 1_555
H3 C4 1_555 1_555
C5 C4 1_555 1_555
H4 C5 1_555 1_555
C6 C1 1_555 1_555
C7 C6 1_555 1_555
H5 C7 1_555 1_555
C8 H6 1_555 1_555
H7 C8 1_555 1_555
C9 C8 1_555 1_555
H8 C9 1_555 1_555
H9 C9 1_555 1_555
C10 H10 1_555 1_555
C11 C10 1_555 1_555
C12 C11 1_555 1_555
H11 C12 1_555 1_555
C13 C12 1_555 1_555
H12 C13 1_555 1_555
C14 C13 1_555 1_555
H13 C14 1_555 1_555
C15 C14 1_555 1_555
H14 C15 1_555 1_555
C16 C11 1_555 1_555
C17 Au1 1_555 1_555
C18 Au1 1_555 1_555
N1 C7 1_555 1_555
N2 C9 1_555 1_555
N3 C17 1_555 1_555
N4 C18 1_555 1_555
O1 C1 1_555 1_555
O2 C16 1_555 1_555
Zn1 N1 1_555 1_555
Zn2 O1 1_555 1_555
C1A C2A 1_555 1_555
C2A H1A 1_555 1_555
C3A C2A 1_555 1_555
H2A C3A 1_555 1_555
C4A C3A 1_555 1_555
H3A C4A 1_555 1_555
C5A C4A 1_555 1_555
H4A C5A 1_555 1_555
C6A C1A 1_555 1_555
C7A C6A 1_555 1_555
H5A C7A 1_555 1_555
C8A H6A 1_555 1_555
H7A C8A 1_555 1_555
C9A C8A 1_555 1_555
H8A C9A 1_555 1_555
H9A C9A 1_555 1_555
C10A H10A 1_555 1_555
C11A C10A 1_555 1_555
C12A C11A 1_555 1_555
H11A C12A 1_555 1_555
C13A C12A 1_555 1_555
H12A C13A 1_555 1_555
C14A C13A 1_555 1_555
H13A C14A 1_555 1_555
C15A C14A 1_555 1_555
H14A C15A 1_555 1_555
C16A C11A 1_555 1_555
C17A Au1A 1_555 1_555
C18A Au1A 1_555 1_555
N1A C7A 1_555 1_555
N2A C9A 1_555 1_555
N3A C17A 1_555 1_555
N4A C18A 1_555 1_555
O1A Zn2 1_555 1_555
O2A Zn2 1_555 1_555
Zn1A N1A 1_555 1_555
N4F Zn2 1_555 1_555
N4G Zn2 1_555 1_555
Zn2F N4 1_555 1_555
Zn2F_2 N4A 1_555 1_555
C5 C6 1_555 1_555
C8 N1 1_555 1_555
C10 N2 1_555 1_555
C15 C16 1_555 1_555
N2 Zn1 1_555 1_555
N3 Zn1 1_555 1_555
O1 Zn1 1_555 1_555
O2 Zn1 1_555 1_555
O2 Zn2 1_555 1_555
C1A O1A 1_555 1_555
C5A C6A 1_555 1_555
C8A N1A 1_555 1_555
C10A N2A 1_555 1_555
C15A C16A 1_555 1_555
C16A O2A 1_555 1_555
N2A Zn1A 1_555 1_555
N3A Zn1A 1_555 1_555
O1A Zn1A 1_555 1_555
O2A Zn1A 1_555 1_555

#END
