
#######################################################################
#
#                 Cambridge Crystallographic Data Centre
#                                CCDC 
#
#######################################################################
#
# If this CIF has been generated from an entry in the Cambridge 
# Structural Database, then it will include bibliographic, chemical, 
# crystal, experimental, refinement or atomic coordinate data resulting 
# from the CCDC's data processing and validation procedures.
#
#######################################################################

data_YOVTEI
_symmetry_cell_setting           monoclinic
_symmetry_space_group_name_H-M   'C 2/c'
_symmetry_Int_Tables_number      15
_space_group_name_Hall           '-C 2yn'
loop_
_symmetry_equiv_pos_site_id
_symmetry_equiv_pos_as_xyz
1 x,y,z
2 -x,y,1/2-z
3 1/2+x,1/2+y,z
4 1/2-x,1/2+y,1/2-z
5 -x,-y,-z
6 x,-y,1/2+z
7 1/2-x,1/2-y,-z
8 1/2+x,1/2-y,1/2+z
_cell_length_a                   26.318(4)
_cell_length_b                   13.810(2)
_cell_length_c                   23.749(5)
_cell_angle_alpha                90
_cell_angle_beta                 115.61(2)
_cell_angle_gamma                90
_cell_volume                     7783.62
loop_
_atom_site_label
_atom_site_type_symbol
_atom_site_fract_x
_atom_site_fract_y
_atom_site_fract_z
N1 N 0.1484(2) 0.0693(4) 0.1358(2)
N2 N 0.1227(2) -0.0772(4) 0.0409(2)
N3 N 0.2173(2) -0.0165(4) 0.0189(2)
N4 N 0.2448(2) 0.1283(3) 0.1163(2)
C1 C 0.2494(3) 0.1951(4) 0.1607(3)
C2 C 0.2137(3) 0.2017(4) 0.1901(3)
C3 C 0.1665(3) 0.1433(5) 0.1778(3)
C4 C 0.1299(3) 0.1527(6) 0.2084(4)
C5 C 0.0911(3) 0.0832(7) 0.1850(4)
C6 C 0.1014(3) 0.0296(5) 0.1385(3)
C7 C 0.0708(3) -0.0498(6) 0.1043(3)
C8 C 0.0806(3) -0.0985(5) 0.0588(3)
C9 C 0.0476(3) -0.1775(6) 0.0215(4)
C10 C 0.0684(3) -0.2029(5) -0.0186(3)
C11 C 0.1165(3) -0.1407(5) -0.0059(3)
C12 C 0.1499(3) -0.1440(5) -0.0387(3)
C13 C 0.1959(3) -0.0830(5) -0.0279(3)
C14 C 0.2283(3) -0.0828(5) -0.0642(3)
C15 C 0.2681(3) -0.0148(5) -0.0392(3)
C16 C 0.2619(3) 0.0265(5) 0.0128(3)
C17 C 0.2959(2) 0.1003(5) 0.0514(3)
C18 C 0.2870(2) 0.1490(4) 0.0982(3)
C19 C 0.3191(3) 0.2304(5) 0.1338(3)
C20 C 0.2961(3) 0.2581(5) 0.1716(3)
C21 C 0.2280(2) 0.2746(2) 0.2419(2)
C22 C 0.2567(2) 0.2433(2) 0.3036(2)
C23 C 0.2741(2) 0.3103(2) 0.3523(2)
N5 N 0.2627(2) 0.4085(2) 0.3393(2)
C24 C 0.2340(2) 0.4398(2) 0.2776(2)
C25 C 0.2167(2) 0.3728(2) 0.2289(2)
C26 C 0.3445(1) 0.1348(3) 0.0392(2)
C27 C 0.3356(1) 0.2031(3) -0.0074(2)
C28 C 0.3805(1) 0.2338(3) -0.0193(2)
N6 N 0.4343(1) 0.1961(3) 0.0153(2)
C29 C 0.4432(1) 0.1277(3) 0.0619(2)
C30 C 0.3983(1) 0.0971(3) 0.0738(2)
C36 C 0.1301(3) -0.2032(5) -0.0917(4)
C37 C 0.0835(3) -0.1731(5) -0.1452(4)
C38 C 0.0627(3) -0.2312(5) -0.1985(4)
N8 N 0.0886(3) -0.3194(5) -0.1983(4)
C39 C 0.1353(3) -0.3495(5) -0.1448(4)
C40 C 0.1560(3) -0.2914(5) -0.0915(4)
C41 C 0.0254(3) -0.0968(5) 0.1172(3)
C42 C 0.0348(3) -0.1788(5) 0.1548(3)
C43 C -0.0081(3) -0.2144(5) 0.1687(3)
N9 N -0.0603(3) -0.1681(5) 0.1451(3)
C44 C -0.0697(3) -0.0861(5) 0.1076(3)
C45 C -0.0268(3) -0.0505(5) 0.0936(3)
Zn1 Zn 0.1915(1) 0.0105(1) 0.0882(1)
H1 H 0.1322 0.2047 0.2411
H2 H 0.0605 0.0661 0.1990
H3 H 0.0142 -0.2073 0.0257
H4 H 0.0535 -0.2576 -0.0509
H5 H 0.2234 -0.1258 -0.1006
H6 H 0.2955 0.0065 -0.0563
H7 H 0.3535 0.2606 0.1306
H8 H 0.3101 0.3129 0.2039
H9 H 0.2651 0.1715 0.3131
H10 H 0.2951 0.2874 0.3974
H11 H 0.2256 0.5116 0.2682
H12 H 0.1957 0.3957 0.1838
H13 H 0.2962 0.2307 -0.0327
H14 H 0.3740 0.2838 -0.0534
H15 H 0.4825 0.1002 0.0873
H16 H 0.4048 0.0471 0.1079
H21 H 0.0645 -0.1086 -0.1454
H22 H 0.0286 -0.2092 -0.2377
H23 H 0.1542 -0.4140 -0.1446
H24 H 0.1901 -0.3134 -0.0524
H25 H 0.0729 -0.2126 0.1720
H26 H -0.0012 -0.2743 0.1962
H27 H -0.1079 -0.0523 0.0903
H28 H -0.0337 0.0094 0.0662
Zn1C Zn 0.3085(1) 0.5105(1) 0.4118(1)
N5C N 0.2373(2) -0.0915(2) 0.1607(2)
C51 C 0.4129(4) 1.0084(7) 0.4228(4)
C52 C 0.3831(4) 1.0884(7) 0.3887(4)
C53 C 0.3788(4) 1.1053(7) 0.3289(4)
C54 C 0.4045(4) 1.0420(7) 0.3032(4)
C55 C 0.4343(4) 0.9620(7) 0.3373(4)
C56 C 0.4386(4) 0.9451(7) 0.3971(4)
N11 N 0.4031(6) 1.0625(9) 0.2444(6)
H33 H 0.4160 0.9961 0.4665
H34 H 0.3643 1.1347 0.4074
H35 H 0.3570 1.1638 0.3039
H36 H 0.4531 0.9157 0.3185
H37 H 0.4604 0.8866 0.4220
C31? C 0.1364(3) -0.2252(6) -0.0930(4)
C32? C 0.0878(3) -0.2177(6) -0.1490(4)
C33? C 0.0728(3) -0.2928(6) -0.1925(4)
N7? N 0.1065(3) -0.3755(6) -0.1799(4)
C34? C 0.1551(3) -0.3830(6) -0.1239(4)
C35? C 0.1700(3) -0.3079(6) -0.0804(4)
C46? C 0.0200(4) -0.0693(7) 0.1171(4)
C47? C 0.0279(4) -0.1055(7) 0.1751(4)
C48? C -0.0185(4) -0.1317(7) 0.1855(4)
N10? N -0.0729(4) -0.1216(7) 0.1379(4)
C49? C -0.0808(4) -0.0853(7) 0.0799(4)
C50? C -0.0343(4) -0.0591(7) 0.0695(4)
C57? C 0.4013(4) 1.1462(8) 0.3475(6)
C58? C 0.4019(4) 1.0885(8) 0.3959(6)
C59? C 0.4145(4) 0.9901(8) 0.3977(6)
C60? C 0.4265(4) 0.9495(8) 0.3511(6)
C61? C 0.4259(4) 1.0072(8) 0.3026(6)
C62? C 0.4133(4) 1.1056(8) 0.3008(6)
N12? N 0.4525(9) 0.8638(16) 0.3699(11)
H17? H 0.0679 -0.1543 -0.1582
H18? H 0.0398 -0.3025 -0.2475
H19? H 0.1881 -0.4427 -0.1251
H20? H 0.2144 -0.3044 -0.0320
H29? H 0.0677 -0.1129 0.2099
H30? H -0.0127 -0.1582 0.2280
H31? H -0.1205 -0.0779 0.0450
H32? H -0.0401 -0.0326 0.0270
H38? H 0.3920 1.2182 0.3462
H39? H 0.3931 1.1182 0.4301
H40? H 0.4149 0.9478 0.4332
H41? H 0.4347 0.9776 0.2685
H42? H 0.4129 1.1479 0.2654
loop_
_geom_bond_atom_site_label_1
_geom_bond_atom_site_label_2
_geom_bond_site_symmetry_1
_geom_bond_site_symmetry_2
N1 C3 1_555 1_555
N2 C8 1_555 1_555
N3 C13 1_555 1_555
N4 C1 1_555 1_555
C1 C2 1_555 1_555
C2 C3 1_555 1_555
C3 C4 1_555 1_555
C4 C5 1_555 1_555
C5 C6 1_555 1_555
C6 N1 1_555 1_555
C7 C6 1_555 1_555
C8 C7 1_555 1_555
C9 C8 1_555 1_555
C10 C9 1_555 1_555
C11 N2 1_555 1_555
C12 C11 1_555 1_555
C13 C12 1_555 1_555
C14 C13 1_555 1_555
C15 C14 1_555 1_555
C16 N3 1_555 1_555
C17 C16 1_555 1_555
C18 N4 1_555 1_555
C19 C18 1_555 1_555
C20 C1 1_555 1_555
C21 C2 1_555 1_555
C22 C21 1_555 1_555
C23 C22 1_555 1_555
N5 C23 1_555 1_555
C24 N5 1_555 1_555
C25 C21 1_555 1_555
C26 C17 1_555 1_555
C27 C26 1_555 1_555
C28 C27 1_555 1_555
N6 C28 1_555 1_555
C29 N6 1_555 1_555
C30 C26 1_555 1_555
C36 C12 1_555 1_555
C37 C36 1_555 1_555
C38 C37 1_555 1_555
N8 C38 1_555 1_555
C39 N8 1_555 1_555
C40 C36 1_555 1_555
C41 C7 1_555 1_555
C42 C41 1_555 1_555
C43 C42 1_555 1_555
N9 C43 1_555 1_555
C44 N9 1_555 1_555
C45 C41 1_555 1_555
Zn1 N1 1_555 1_555
C51 C52 1_555 1_555
C52 C53 1_555 1_555
C53 C54 1_555 1_555
C54 C55 1_555 1_555
C55 C56 1_555 1_555
C56 C51 1_555 1_555
N11 C54 1_555 1_555
H1 C4 1_555 1_555
H2 C5 1_555 1_555
H3 C9 1_555 1_555
H4 C10 1_555 1_555
H5 C14 1_555 1_555
H6 C15 1_555 1_555
H7 C19 1_555 1_555
H8 C20 1_555 1_555
H9 C22 1_555 1_555
H10 C23 1_555 1_555
H11 C24 1_555 1_555
H12 C25 1_555 1_555
H13 C27 1_555 1_555
H14 C28 1_555 1_555
H15 C29 1_555 1_555
H16 C30 1_555 1_555
H21 C37 1_555 1_555
H22 C38 1_555 1_555
H23 C39 1_555 1_555
H24 C40 1_555 1_555
H25 C42 1_555 1_555
H26 C43 1_555 1_555
H27 C44 1_555 1_555
H28 C45 1_555 1_555
H33 C51 1_555 1_555
H34 C52 1_555 1_555
H35 C53 1_555 1_555
H36 C55 1_555 1_555
H37 C56 1_555 1_555
Zn1C N5 1_555 1_555
N5C Zn1 1_555 1_555
N2 Zn1 1_555 1_555
N3 Zn1 1_555 1_555
N4 Zn1 1_555 1_555
C10 C11 1_555 1_555
C15 C16 1_555 1_555
C17 C18 1_555 1_555
C19 C20 1_555 1_555
C24 C25 1_555 1_555
C29 C30 1_555 1_555
C39 C40 1_555 1_555
C44 C45 1_555 1_555

#END
