
#######################################################################
#
#                 Cambridge Crystallographic Data Centre
#                                CCDC 
#
#######################################################################
#
# If this CIF has been generated from an entry in the Cambridge 
# Structural Database, then it will include bibliographic, chemical, 
# crystal, experimental, refinement or atomic coordinate data resulting 
# from the CCDC's data processing and validation procedures.
#
#######################################################################

data_YOVVEM
_symmetry_cell_setting           triclinic
_symmetry_space_group_name_H-M   'P -1'
_symmetry_Int_Tables_number      2
_space_group_name_Hall           '-P 1'
loop_
_symmetry_equiv_pos_site_id
_symmetry_equiv_pos_as_xyz
1 x,y,z
2 -x,-y,-z
_cell_length_a                   9.5556(4)
_cell_length_b                   12.1747(2)
_cell_length_c                   12.9664(3)
_cell_angle_alpha                84.089(2)
_cell_angle_beta                 89.206(3)
_cell_angle_gamma                88.552(2)
_cell_volume                     1499.87
loop_
_atom_site_label
_atom_site_type_symbol
_atom_site_fract_x
_atom_site_fract_y
_atom_site_fract_z
Cd1 Cd 0.83577(6) -0.25283(5) 0.74450(5)
Br1 Br 0.70753(10) -0.59021(7) 0.69032(7)
N1 N 0.9208(7) -0.0942(6) 0.6829(6)
C1 C 1.0219(9) -0.0376(7) 0.7195(8)
O1 O 0.6591(7) -0.1924(5) 0.8371(5)
C2 C 1.1181(11) -0.0805(8) 0.8054(9)
H1 H 1.0771 -0.1429 0.8448
H2 H 1.1326 -0.0236 0.8498
H3 H 1.2062 -0.1026 0.7766
N2 N 1.0275(7) 0.0662(6) 0.6698(6)
O2 O 0.8271(8) -0.1530(6) 0.9414(7)
Br2 Br 0.53304(9) -0.24822(7) 0.38997(7)
Br3 Br 0.71101(10) 0.09770(7) 0.81441(8)
O3 O 0.6743(7) -0.3078(5) 0.6432(5)
C3 C 0.8549(9) -0.0242(7) 0.6066(6)
N3 N 0.9331(7) 0.5885(6) 0.8002(5)
Br4 Br 0.48130(9) 0.26409(7) 0.91853(7)
O4 O 0.8333(6) -0.3556(5) 0.5268(5)
N4 N 1.0407(7) 0.4241(6) 0.8105(6)
C4 C 0.7396(10) -0.0415(7) 0.5441(7)
H4 H 0.6932 -0.1081 0.5502
C5 C 0.6991(11) 0.0462(8) 0.4730(7)
H5 H 0.6228 0.0381 0.4310
C6 C 0.7692(11) 0.1465(8) 0.4623(7)
H6 H 0.7396 0.2025 0.4125
C7 C 0.8814(10) 0.1638(8) 0.5243(7)
H7 H 0.9277 0.2305 0.5181
C8 C 0.9216(9) 0.0768(7) 0.5963(7)
C9 C 1.1190(9) 0.1550(7) 0.6916(8)
H8 H 1.1619 0.1868 0.6276
H9 H 1.1931 0.1252 0.7376
C10 C 1.0300(9) 0.5267(7) 0.7579(7)
C11 C 1.1189(9) 0.5637(7) 0.6664(7)
H10 H 1.0826 0.6329 0.6340
H11 H 1.1183 0.5094 0.6178
H12 H 1.2130 0.5728 0.6884
C12 C 0.8760(9) 0.5231(7) 0.8831(7)
C13 C 0.7669(10) 0.5471(7) 0.9521(7)
H13 H 0.7206 0.6155 0.9471
C14 C 0.7323(10) 0.4632(8) 1.0278(7)
H14 H 0.6601 0.4756 1.0743
C15 C 0.8026(10) 0.3604(8) 1.0366(7)
H15 H 0.7770 0.3070 1.0895
C16 C 0.9084(9) 0.3363(7) 0.9690(7)
H16 H 0.9550 0.2680 0.9752
C17 C 1.1280(9) 0.3303(7) 0.7814(7)
H17 H 1.1797 0.2978 0.8413
H18 H 1.1950 0.3563 0.7281
C18 C 1.0374(10) 0.2439(8) 0.7416(9)
H19 H 0.9825 0.2093 0.7990
H20 H 0.9726 0.2802 0.6914
C19 C 0.7175(9) -0.3602(7) 0.5686(7)
C20 C 0.6060(8) -0.4327(7) 0.5305(6)
C21 C 0.5147(8) -0.3945(7) 0.4526(6)
C22 C 0.5890(9) -0.5399(7) 0.5799(6)
C23 C 0.7049(11) -0.1442(7) 0.9097(8)
C24 C 0.6007(9) -0.0698(7) 0.9578(6)
C25 C 0.5907(9) 0.0426(7) 0.9233(7)
C26 C 0.4913(9) 0.1110(7) 0.9635(7)
C27 C 0.9430(9) 0.4189(7) 0.8908(7)
Br1A Br 0.29247(10) -0.40979(7) 0.30968(7)
Br2A Br 0.46696(9) -0.75178(7) 0.61003(7)
O3A O 0.3257(7) -0.6922(5) 0.3568(5)
O4A O 0.1667(6) -0.6444(5) 0.4732(5)
C19A C 0.2825(9) -0.6398(7) 0.4314(7)
C20A C 0.3940(8) -0.5673(7) 0.4695(6)
C21A C 0.4853(8) -0.6055(7) 0.5474(6)
C22A C 0.4110(9) -0.4601(7) 0.4201(6)
O1A O 0.3409(7) 0.1924(5) 1.1629(5)
O2A O 0.1729(8) 0.1530(6) 1.0586(7)
Br3A Br 0.28899(10) -0.09770(7) 1.18559(8)
Br4A Br 0.51870(9) -0.26409(7) 1.08147(7)
C23A C 0.2951(11) 0.1442(7) 1.0903(8)
C24A C 0.3993(9) 0.0698(7) 1.0422(6)
C25A C 0.4093(9) -0.0426(7) 1.0767(7)
C26A C 0.5087(9) -0.1110(7) 1.0365(7)
Cd1A Cd 0.16423(6) -0.74717(5) 0.25550(5)
N1A N 0.0792(7) -0.9058(6) 0.3171(6)
C1A C -0.0219(9) -0.9624(7) 0.2805(8)
C2A C -0.1181(11) -0.9195(8) 0.1946(9)
H1A H -0.0771 -0.8571 0.1552
H2A H -0.1326 -0.9764 0.1502
H3A H -0.2062 -0.8974 0.2234
N2A N -0.0275(7) -1.0662(6) 0.3302(6)
C3A C 0.1451(9) -0.9758(7) 0.3934(6)
N3A N 0.0669(7) -1.5885(6) 0.1998(5)
N4A N -0.0407(7) -1.4241(6) 0.1895(6)
C4A C 0.2604(10) -0.9585(7) 0.4559(7)
H4A H 0.3068 -0.8919 0.4498
C5A C 0.3009(11) -1.0462(8) 0.5270(7)
H5A H 0.3772 -1.0381 0.5690
C6A C 0.2308(11) -1.1465(8) 0.5377(7)
H6A H 0.2604 -1.2025 0.5875
C7A C 0.1186(10) -1.1638(8) 0.4757(7)
H7A H 0.0723 -1.2305 0.4819
C8A C 0.0784(9) -1.0768(7) 0.4037(7)
C9A C -0.1190(9) -1.1550(7) 0.3084(8)
H8A H -0.1619 -1.1868 0.3724
H9A H -0.1931 -1.1252 0.2624
C10A C -0.0300(9) -1.5267(7) 0.2421(7)
C11A C -0.1189(9) -1.5637(7) 0.3336(7)
H10A H -0.0826 -1.6329 0.3660
H11A H -0.1183 -1.5094 0.3822
H12A H -0.2130 -1.5728 0.3116
C12A C 0.1240(9) -1.5231(7) 0.1169(7)
C13A C 0.2331(10) -1.5471(7) 0.0479(7)
H13A H 0.2794 -1.6155 0.0529
C14A C 0.2677(10) -1.4632(8) -0.0278(7)
H14A H 0.3399 -1.4756 -0.0743
C15A C 0.1974(10) -1.3604(8) -0.0366(7)
H15A H 0.2230 -1.3070 -0.0895
C16A C 0.0916(9) -1.3363(7) 0.0310(7)
H16A H 0.0450 -1.2680 0.0248
C17A C -0.1280(9) -1.3303(7) 0.2186(7)
H17A H -0.1797 -1.2978 0.1587
H18A H -0.1950 -1.3563 0.2719
C18A C -0.0374(10) -1.2439(8) 0.2584(9)
H19A H 0.0175 -1.2093 0.2010
H20A H 0.0274 -1.2802 0.3086
C27A C 0.0570(9) -1.4189(7) 0.1092(7)
Cd1_2 Cd 0.83577(6) 0.74717(5) 0.74450(5)
Cd1A_2 Cd 0.16423(6) -1.74717(5) 0.25550(5)
Cd1A_3 Cd 0.16423(6) 0.25283(5) 1.25550(5)
O1A_2 O 0.3409(7) -0.8076(5) 0.1629(5)
N3_2 N 0.9331(7) -0.4115(6) 0.8002(5)
N3A_2 N 0.0669(7) -0.5885(6) 0.1998(5)
O5 O 0.4128(10) 0.7168(13) 0.7502(8)
H21 H 0.427(19) 0.784(5) 0.760(14)
H22 H 0.468(15) 0.697(12) 0.703(10)
loop_
_geom_bond_atom_site_label_1
_geom_bond_atom_site_label_2
_geom_bond_site_symmetry_1
_geom_bond_site_symmetry_2
Cd1 N1 1_555 1_555
Br1 C22 1_555 1_555
N1 C1 1_555 1_555
C1 C2 1_555 1_555
O1 Cd1 1_555 1_555
C2 H1 1_555 1_555
H2 C2 1_555 1_555
H3 C2 1_555 1_555
N2 C1 1_555 1_555
O2 C23 1_555 1_555
Br2 C21 1_555 1_555
Br3 C25 1_555 1_555
O3 Cd1 1_555 1_555
C3 N1 1_555 1_555
N3 C10 1_555 1_555
Br4 C26 1_555 1_555
O4 C19 1_555 1_555
N4 C10 1_555 1_555
C4 C3 1_555 1_555
H4 C4 1_555 1_555
C5 C4 1_555 1_555
H5 C5 1_555 1_555
C6 C5 1_555 1_555
H6 C6 1_555 1_555
C7 C6 1_555 1_555
H7 C7 1_555 1_555
C8 N2 1_555 1_555
C9 N2 1_555 1_555
H8 C9 1_555 1_555
H9 C9 1_555 1_555
C10 C11 1_555 1_555
C11 H10 1_555 1_555
H11 C11 1_555 1_555
H12 C11 1_555 1_555
C12 N3 1_555 1_555
C13 C12 1_555 1_555
H13 C13 1_555 1_555
C14 C13 1_555 1_555
H14 C14 1_555 1_555
C15 C14 1_555 1_555
H15 C15 1_555 1_555
C16 C15 1_555 1_555
H16 C16 1_555 1_555
C17 N4 1_555 1_555
H17 C17 1_555 1_555
H18 C17 1_555 1_555
C18 C9 1_555 1_555
H19 C18 1_555 1_555
H20 C18 1_555 1_555
C19 O3 1_555 1_555
C20 C19 1_555 1_555
C21 C20 1_555 1_555
C22 C20 1_555 1_555
C23 O1 1_555 1_555
C24 C23 1_555 1_555
C25 C24 1_555 1_555
C26 C25 1_555 1_555
C27 N4 1_555 1_555
O5 H21 1_555 1_555
H22 O5 1_555 1_555
Br1A C22A 1_555 1_555
Br2A C21A 1_555 1_555
O3A C19A 1_555 1_555
O4A C19A 1_555 1_555
C19A C20A 1_555 1_555
C20A C21A 1_555 1_555
C21A C22 1_555 1_555
C22A C21 1_555 1_555
O1A C23A 1_555 1_555
O2A C23A 1_555 1_555
Br3A C25A 1_555 1_555
Br4A C26A 1_555 1_555
C23A C24A 1_555 1_555
C24A C26 1_555 1_555
C25A C24A 1_555 1_555
C26A C24 1_555 1_555
Cd1A O3A 1_555 1_555
N1A Cd1A 1_555 1_555
C1A N1A 1_555 1_555
C2A C1A 1_555 1_555
H1A C2A 1_555 1_555
H2A C2A 1_555 1_555
H3A C2A 1_555 1_555
N2A C1A 1_555 1_555
C3A N1A 1_555 1_555
N3A C10A 1_555 1_555
N4A C10A 1_555 1_555
C4A C3A 1_555 1_555
H4A C4A 1_555 1_555
C5A C4A 1_555 1_555
H5A C5A 1_555 1_555
C6A C5A 1_555 1_555
H6A C6A 1_555 1_555
C7A C6A 1_555 1_555
H7A C7A 1_555 1_555
C8A N2A 1_555 1_555
C9A N2A 1_555 1_555
H8A C9A 1_555 1_555
H9A C9A 1_555 1_555
C10A C11A 1_555 1_555
C11A H10A 1_555 1_555
H11A C11A 1_555 1_555
H12A C11A 1_555 1_555
C12A N3A 1_555 1_555
C13A C12A 1_555 1_555
H13A C13A 1_555 1_555
C14A C13A 1_555 1_555
H14A C14A 1_555 1_555
C15A C14A 1_555 1_555
H15A C15A 1_555 1_555
C16A C15A 1_555 1_555
H16A C16A 1_555 1_555
C17A N4A 1_555 1_555
H17A C17A 1_555 1_555
H18A C17A 1_555 1_555
C18A C9A 1_555 1_555
H19A C18A 1_555 1_555
H20A C18A 1_555 1_555
C27A N4A 1_555 1_555
Cd1_2 N3 1_555 1_555
Cd1A_2 N3A 1_555 1_555
Cd1A_3 O1A 1_555 1_555
O1A_2 Cd1A 1_555 1_555
N3_2 Cd1 1_555 1_555
N3A_2 Cd1A 1_555 1_555
C3 C8 1_555 1_555
C7 C8 1_555 1_555
C12 C27 1_555 1_555
C16 C27 1_555 1_555
C17 C18 1_555 1_555
C20A C22A 1_555 1_555
C25A C26A 1_555 1_555
C3A C8A 1_555 1_555
C7A C8A 1_555 1_555
C12A C27A 1_555 1_555
C16A C27A 1_555 1_555
C17A C18A 1_555 1_555

#END
