
#######################################################################
#
#                 Cambridge Crystallographic Data Centre
#                                CCDC 
#
#######################################################################
#
# If this CIF has been generated from an entry in the Cambridge 
# Structural Database, then it will include bibliographic, chemical, 
# crystal, experimental, refinement or atomic coordinate data resulting 
# from the CCDC's data processing and validation procedures.
#
#######################################################################

data_YOVWIP
_symmetry_cell_setting           orthorhombic
_symmetry_space_group_name_H-M   'P 21 21 21'
_symmetry_Int_Tables_number      19
_space_group_name_Hall           'P 2ac 2ab'
loop_
_symmetry_equiv_pos_site_id
_symmetry_equiv_pos_as_xyz
1 x,y,z
2 1/2-x,-y,1/2+z
3 1/2+x,1/2-y,-z
4 -x,1/2+y,1/2-z
_cell_length_a                   13.674(3)
_cell_length_b                   18.485(6)
_cell_length_c                   19.334(7)
_cell_angle_alpha                90
_cell_angle_beta                 90
_cell_angle_gamma                90
_cell_volume                     4886.94
loop_
_atom_site_label
_atom_site_type_symbol
_atom_site_fract_x
_atom_site_fract_y
_atom_site_fract_z
Nd1 Nd 0.2493(1) 0.1894(1) 0.3554(1)
Nd2 Nd 0.1813(1) 0.3105(1) 0.1609(1)
S1 S -0.1697(7) 0.0847(3) 0.1447(4)
S2 S -0.0366(6) 0.0830(4) 0.1929(4)
S3 S 0.3247(5) -0.0417(3) 0.2291(4)
S4 S 0.3485(5) -0.1352(3) 0.1742(4)
O1 O 0.0398(12) 0.2640(9) 0.2163(9)
O2 O 0.1047(11) 0.2049(8) 0.3055(8)
O3 O -0.1803(13) -0.1421(8) 0.2332(8)
O4 O -0.2125(10) -0.1869(10) 0.1269(9)
O5 O 0.2213(9) 0.1910(10) 0.1674(8)
O6 O 0.2562(14) 0.1184(7) 0.2543(8)
O7 O 0.6504(11) -0.1894(10) 0.3068(9)
O8 O 0.6412(12) -0.2539(10) 0.2125(9)
O33 O 0.2708(14) 0.3052(14) 0.0527(8)
O34 O 0.2484(15) 0.4317(9) 0.1404(10)
O35 O 0.0826(14) 0.2567(10) 0.0725(10)
O36 O 0.0567(15) 0.3937(10) 0.1291(13)
O37 O 0.3813(13) 0.1086(9) 0.3808(11)
O38 O 0.3564(13) 0.2426(9) 0.4432(10)
O39 O 0.1614(12) 0.1923(11) 0.4622(8)
O40 O 0.1783(13) 0.0715(9) 0.3763(9)
N1 N -0.1440(14) 0.2300(11) 0.2505(12)
N2 N -0.1671(20) -0.0662(11) 0.0590(10)
N3 N 0.3012(23) 0.1059(12) 0.0717(10)
N4 N 0.4619(16) -0.1615(12) 0.3140(12)
C1 C 0.0348(17) 0.2247(12) 0.2674(12)
C2 C -0.0647(14) 0.1925(15) 0.2899(11)
C3 C -0.0660(21) 0.1098(13) 0.2788(14)
C4 C -0.1881(17) -0.1378(12) 0.1710(12)
C5 C -0.1564(19) -0.0648(11) 0.1368(14)
C6 C -0.2189(19) -0.0033(12) 0.1686(18)
C7 C 0.2470(19) 0.1333(12) 0.1950(12)
C8 C 0.2791(18) 0.0733(11) 0.1409(14)
C9 C 0.3615(17) 0.0262(13) 0.1663(15)
C10 C 0.6079(19) -0.2167(13) 0.2580(13)
C11 C 0.4985(15) -0.1960(15) 0.2520(11)
C12 C 0.4769(16) -0.1549(13) 0.1902(13)
O4C O 0.2125(10) 0.3131(10) 0.3731(9)
O8C O 0.3588(12) 0.2461(10) 0.2875(9)
O3C O 0.1803(13) 0.3579(8) 0.2668(8)
O7C O 0.3496(11) 0.3106(10) 0.1932(9)
Nd2C Nd -0.1813(1) -0.1895(1) 0.3391(1)
Nd1C Nd -0.2493(1) -0.3106(1) 0.1446(1)
Nd2C_2 Nd 0.8187(1) -0.1895(1) 0.3391(1)
Nd1C_2 Nd 0.7507(1) -0.3106(1) 0.1446(1)
Cl1 Cl 0.8018(5) 0.3241(4) 0.0934(3)
O9 O 0.7646(14) 0.3423(10) 0.1621(12)
O10 O 0.7261(13) 0.3114(12) 0.0437(9)
O11 O 0.8616(17) 0.2582(12) 0.0937(13)
O12 O 0.8649(20) 0.3816(14) 0.0647(13)
Cl2 Cl 0.3461(5) 0.6579(4) 0.1073(4)
O13 O 0.2988(25) 0.6841(17) 0.0467(14)
O14 O 0.3696(43) 0.5860(15) 0.0853(15)
O15 O 0.2977(24) 0.6686(21) 0.1691(13)
O16 O 0.4296(23) 0.7044(33) 0.1071(36)
Cl3 Cl 0.5133(6) 0.4164(4) 0.0230(4)
O17 O 0.5625(22) 0.4123(14) -0.0406(11)
O18 O 0.4823(14) 0.3444(11) 0.0440(11)
O19 O 0.5732(19) 0.4453(11) 0.0771(10)
O20 O 0.4302(23) 0.4619(14) 0.0156(17)
Cl4 Cl 0.5658(5) 0.9289(4) -0.0071(4)
O21 O 0.6241(17) 0.9075(12) 0.0514(12)
O22 O 0.5393(19) 0.8642(13) -0.0460(12)
O23 O 0.6254(24) 0.9746(14) -0.0506(15)
O24 O 0.4788(21) 0.9702(17) 0.0237(21)
Cl5 Cl 1.0864(6) 0.8625(4) 0.0992(4)
O25 O 1.0034(19) 0.8344(20) 0.0626(18)
O26 O 1.1644(17) 0.8212(20) 0.0730(15)
O27 O 1.0744(27) 0.8563(17) 0.1681(14)
O28 O 1.0850(37) 0.9339(16) 0.0825(24)
Cl6 Cl 0.5809(8) 0.1525(5) 0.1225(6)
O29 O 0.6191(30) 0.1436(24) 0.0547(18)
O30 O 0.5798(18) 0.0864(14) 0.1583(24)
O31 O 0.6418(18) 0.2017(12) 0.1670(18)
O32 O 0.4831(16) 0.1819(16) 0.1180(20)
O41 O 0.9088(15) 0.4635(13) 0.2090(14)
O42 O 0.7681(22) 0.5265(14) -0.0067(14)
O43 O 0.4254(17) 0.4890(12) 0.2037(16)
loop_
_geom_bond_atom_site_label_1
_geom_bond_atom_site_label_2
_geom_bond_site_symmetry_1
_geom_bond_site_symmetry_2
Nd1 O2 1_555 1_555
Nd2 O1 1_555 1_555
Cl1 O9 1_555 1_555
Cl2 O13 1_555 1_555
Cl3 O17 1_555 1_555
Cl4 O21 1_555 1_555
Cl5 O25 1_555 1_555
Cl6 O29 1_555 1_555
S1 S2 1_555 1_555
S2 C3 1_555 1_555
S3 S4 1_555 1_555
S4 C12 1_555 1_555
O1 C1 1_555 1_555
O2 C1 1_555 1_555
O3 C4 1_555 1_555
O4 C4 1_555 1_555
O5 Nd2 1_555 1_555
O6 Nd1 1_555 1_555
O7 C10 1_555 1_555
O8 C10 1_555 1_555
O10 Cl1 1_555 1_555
O11 Cl1 1_555 1_555
O12 Cl1 1_555 1_555
O14 Cl2 1_555 1_555
O15 Cl2 1_555 1_555
O16 Cl2 1_555 1_555
O18 Cl3 1_555 1_555
O19 Cl3 1_555 1_555
O20 Cl3 1_555 1_555
O22 Cl4 1_555 1_555
O23 Cl4 1_555 1_555
O24 Cl4 1_555 1_555
O26 Cl5 1_555 1_555
O27 Cl5 1_555 1_555
O28 Cl5 1_555 1_555
O30 Cl6 1_555 1_555
O31 Cl6 1_555 1_555
O32 Cl6 1_555 1_555
O33 Nd2 1_555 1_555
O34 Nd2 1_555 1_555
O35 Nd2 1_555 1_555
O36 Nd2 1_555 1_555
O37 Nd1 1_555 1_555
O38 Nd1 1_555 1_555
O39 Nd1 1_555 1_555
O40 Nd1 1_555 1_555
N1 C2 1_555 1_555
N2 C5 1_555 1_555
N3 C8 1_555 1_555
N4 C11 1_555 1_555
C1 C2 1_555 1_555
C2 C3 1_555 1_555
C4 C5 1_555 1_555
C5 C6 1_555 1_555
C6 S1 1_555 1_555
C7 O5 1_555 1_555
C8 C7 1_555 1_555
C9 S3 1_555 1_555
C10 C11 1_555 1_555
C11 C12 1_555 1_555
O4C Nd1 1_555 1_555
O8C Nd1 1_555 1_555
O3C Nd2 1_555 1_555
O7C Nd2 1_555 1_555
Nd2C O3 1_555 1_555
Nd1C O4 1_555 1_555
Nd2C_2 O7 1_555 1_555
Nd1C_2 O8 1_555 1_555
O6 C7 1_555 1_555
C8 C9 1_555 1_555

#END
