
#######################################################################
#
#                 Cambridge Crystallographic Data Centre
#                                CCDC 
#
#######################################################################
#
# If this CIF has been generated from an entry in the Cambridge 
# Structural Database, then it will include bibliographic, chemical, 
# crystal, experimental, refinement or atomic coordinate data resulting 
# from the CCDC's data processing and validation procedures.
#
#######################################################################

data_YOWCIY
_symmetry_cell_setting           orthorhombic
_symmetry_space_group_name_H-M   'P 21 21 21'
_symmetry_Int_Tables_number      19
_space_group_name_Hall           'P 2ac 2ab'
loop_
_symmetry_equiv_pos_site_id
_symmetry_equiv_pos_as_xyz
1 x,y,z
2 1/2+x,1/2-y,-z
3 -x,1/2+y,1/2-z
4 1/2-x,-y,1/2+z
_cell_length_a                   5.2989(5)
_cell_length_b                   15.3102(12)
_cell_length_c                   19.3432(17)
_cell_angle_alpha                90
_cell_angle_beta                 90
_cell_angle_gamma                90
_cell_volume                     1569.26
loop_
_atom_site_label
_atom_site_type_symbol
_atom_site_fract_x
_atom_site_fract_y
_atom_site_fract_z
Zn1 Zn 0.11229(6) 0.09546(2) 0.10540(2)
O1 O 0.1305(5) 0.54009(16) 0.33125(14)
O2 O 0.0073(8) 0.4040(2) 0.3490(2)
O3 O 0.2214(6) 0.19023(18) 0.16644(13)
O4 O 0.4826(6) 0.22627(16) 0.08133(12)
O5 O 0.3772(6) 0.0073(2) 0.08052(14)
C1 C 0.1313(6) 0.4586(2) 0.31831(15)
C2 C 0.3058(5) 0.43165(19) 0.26046(14)
C3 C 0.3780(6) 0.24165(19) 0.13775(14)
C4 C 0.4281(6) 0.32612(19) 0.17437(14)
C5 C 0.6239(6) 0.38089(19) 0.15265(14)
H1 H 0.7301 0.3638 0.1169
C6 C 0.6589(5) 0.46151(19) 0.18510(14)
C7 C 0.4970(6) 0.4866(2) 0.23857(14)
H2 H 0.5180 0.5408 0.2596
C8 C 0.2703(6) 0.3514(2) 0.22866(15)
H3 H 0.1417 0.3145 0.2434
N1 N 0.8516(6) 0.52226(19) 0.16773(13)
C9 C 1.0007(6) 0.5250(2) 0.11170(15)
O6 O 0.9967(6) 0.46875(19) 0.06625(12)
C10 C 1.1797(5) 0.6008(2) 0.10719(15)
C11 C 1.1988(8) 0.6646(3) 0.1580(2)
H4 H 1.0947 0.6626 0.1966
C12 C 1.3742(11) 0.7314(3) 0.1506(2)
H5 H 1.3876 0.7736 0.1850
C13 C 1.5276(8) 0.7364(3) 0.0940(3)
H6 H 1.6451 0.7812 0.0901
C14 C 1.5060(9) 0.6736(3) 0.0421(3)
H7 H 1.6076 0.6766 0.0029
C15 C 1.3320(8) 0.6068(3) 0.0493(2)
H8 H 1.3172 0.5652 0.0146
O7 O -0.0913(6) 0.1366(2) 0.02347(14)
H9 H 0.4108 0.0117 0.0315
H10 H -0.0322 0.1800 -0.0077
H11 H 0.3527 -0.0476 0.0972
H12 H -0.2502 0.1603 0.0348
H13 H 0.842(12) 0.565(4) 0.188(3)
Zn1B Zn -0.11229(6) 0.59546(2) 0.39460(2)
O1B O -0.1305(5) 0.04009(16) 0.16875(14)
loop_
_geom_bond_atom_site_label_1
_geom_bond_atom_site_label_2
_geom_bond_site_symmetry_1
_geom_bond_site_symmetry_2
Zn1 O3 1_555 1_555
O1 C1 1_555 1_555
O2 C1 1_555 1_555
O3 C3 1_555 1_555
O4 C3 1_555 1_555
O5 Zn1 1_555 1_555
C1 C2 1_555 1_555
C2 C7 1_555 1_555
C3 C4 1_555 1_555
C4 C5 1_555 1_555
C5 H1 1_555 1_555
C6 C5 1_555 1_555
C7 C6 1_555 1_555
H2 C7 1_555 1_555
C8 C2 1_555 1_555
H3 C8 1_555 1_555
N1 C6 1_555 1_555
C9 N1 1_555 1_555
O6 C9 1_555 1_555
C10 C9 1_555 1_555
C11 C10 1_555 1_555
H4 C11 1_555 1_555
C12 C11 1_555 1_555
H5 C12 1_555 1_555
C13 C12 1_555 1_555
H6 C13 1_555 1_555
C14 C13 1_555 1_555
H7 C14 1_555 1_555
C15 C10 1_555 1_555
H8 C15 1_555 1_555
O7 Zn1 1_555 1_555
H9 O5 1_555 1_555
H10 O7 1_555 1_555
H11 O5 1_555 1_555
H12 O7 1_555 1_555
H13 N1 1_555 1_555
Zn1B O1 1_555 1_555
O1B Zn1 1_555 1_555
C4 C8 1_555 1_555
C14 C15 1_555 1_555

#END
