
#######################################################################
#
#                 Cambridge Crystallographic Data Centre
#                                CCDC 
#
#######################################################################
#
# If this CIF has been generated from an entry in the Cambridge 
# Structural Database, then it will include bibliographic, chemical, 
# crystal, experimental, refinement or atomic coordinate data resulting 
# from the CCDC's data processing and validation procedures.
#
#######################################################################

data_YOWLON
_symmetry_cell_setting           triclinic
_symmetry_space_group_name_H-M   'P -1'
_symmetry_Int_Tables_number      2
_space_group_name_Hall           '-P 1'
loop_
_symmetry_equiv_pos_site_id
_symmetry_equiv_pos_as_xyz
1 x,y,z
2 -x,-y,-z
_cell_length_a                   13.5095(16)
_cell_length_b                   14.0897(17)
_cell_length_c                   15.3417(18)
_cell_angle_alpha                72.7850(10)
_cell_angle_beta                 84.827(2)
_cell_angle_gamma                74.414(2)
_cell_volume                     2686.64
loop_
_atom_site_label
_atom_site_type_symbol
_atom_site_fract_x
_atom_site_fract_y
_atom_site_fract_z
Mo1 Mo 0.60042(2) 0.57973(2) 0.75710(2)
Mo2 Mo 0.65901(2) 0.69422(2) 0.91135(2)
Mo3 Mo 0.61695(2) 0.38414(2) 0.80800(2)
Mo4 Mo 0.30978(2) 0.76043(2) 0.96938(2)
Mo5 Mo 0.26842(2) 0.67300(2) 0.85584(2)
Mo6 Mo 0.71188(2) 0.58941(2) 1.07606(2)
Co1 Co 0.5000 0.5000 1.0000
Co2 Co 0.08582(4) 1.02707(4) 1.23597(3)
Co3 Co 0.94304(4) 0.61252(4) 0.63269(3)
P1 P 0.21527(7) 0.55240(7) 1.07679(6)
P2 P 0.92274(7) 0.42193(8) 1.17498(7)
P3 P 0.18216(10) 0.81805(9) 1.14807(8)
P4 P 0.73943(7) 0.75140(7) 0.69493(6)
Na1 Na 0.94990(14) 0.64504(18) 1.03510(15)
O1 O 0.54153(18) 0.49303(18) 0.86332(16)
O2 O 0.59279(18) 0.60036(18) 1.00477(16)
O3 O 0.38995(18) 0.63909(18) 0.93237(16)
O4 O 0.3012(2) 0.7480(2) 0.75749(17)
O5 O 0.3292(2) 0.5328(2) 0.82806(17)
O6 O 0.8681(2) 0.3373(2) 1.18835(18)
O7 O 0.22474(18) 0.55158(19) 0.97607(16)
O8 O 0.18224(19) 0.7671(2) 0.91755(17)
O9 O 0.26618(18) 0.63512(18) 1.08524(16)
O10 O 0.2194(2) 0.84718(19) 1.04793(17)
O11 O 0.4173(2) 0.7196(2) 1.07192(18)
O12 O 0.3547(2) 0.8552(2) 0.89879(19)
O13 O 0.5997(2) 0.8084(2) 0.92758(19)
O14 O 0.6661(2) 0.6782(2) 1.13120(19)
O15 O 0.8531(2) 0.5287(2) 1.13792(19)
O16 O 0.78843(19) 0.6532(2) 0.97264(17)
O17 O 0.7392(2) 0.7519(2) 0.79480(17)
O18 O 0.5522(2) 0.69703(19) 0.81990(17)
O19 O 0.6729(3) 0.8578(2) 0.6398(2)
O20 O 0.27830(18) 0.44770(18) 1.13458(16)
O21 O 0.6956(2) 0.6671(2) 0.68451(17)
O22 O 0.8459(2) 0.7417(2) 0.65393(18)
O23 O 0.69945(19) 0.46666(19) 0.72651(16)
O24 O 0.2721(2) 0.7426(2) 1.20780(17)
O25 O 0.5293(2) 0.3765(2) 0.74236(19)
O26 O 0.5082(2) 0.6199(2) 0.67988(18)
O27 O 1.0066(2) 0.4061(3) 1.0982(2)
O28 O 0.10562(19) 0.5753(2) 1.10908(17)
O29 O 0.0905(3) 0.7647(3) 1.1553(2)
O30 O 0.1388(2) 0.9106(2) 1.1787(2)
O31 O 0.9754(3) 0.4127(3) 1.2584(2)
C1 C 1.1654(3) 0.6012(4) 0.5759(3)
C2 C 1.2465(4) 0.6181(4) 0.5167(3)
C3 C 1.2256(4) 0.6535(4) 0.4257(3)
C4 C 1.1283(4) 0.6689(4) 0.3956(3)
C5 C 1.0515(3) 0.6473(3) 0.4583(3)
C6 C 0.9454(3) 0.6559(3) 0.4334(3)
C7 C 0.9142(4) 0.6803(4) 0.3448(3)
C8 C 0.8140(4) 0.6866(5) 0.3281(4)
C9 C 0.7455(4) 0.6685(4) 0.4000(3)
C10 C 0.7837(4) 0.6430(4) 0.4863(3)
C11 C 1.3522(4) 0.5992(5) 0.5536(5)
H1 H 1.3960 0.5376 0.5428
H2 H 1.3473 0.5917 0.6180
H3 H 1.3806 0.6563 0.5234
C12 C 0.6353(5) 0.6780(6) 0.3855(5)
H4 H 0.6025 0.6553 0.4433
H5 H 0.6304 0.6364 0.3473
H6 H 0.6019 0.7485 0.3565
C13 C -0.1273(4) 0.9847(4) 1.2866(4)
C14 C -0.2049(4) 0.9514(4) 1.3427(4)
C15 C -0.1815(5) 0.9048(4) 1.4328(4)
C16 C -0.0865(4) 0.8911(4) 1.4637(4)
C17 C -0.0127(4) 0.9250(3) 1.4037(3)
C18 C 0.0921(4) 0.9132(3) 1.4309(3)
C19 C 0.1280(5) 0.8666(4) 1.5202(3)
C20 C 0.2281(5) 0.8564(4) 1.5392(4)
C21 C 0.2945(5) 0.8905(4) 1.4707(4)
C22 C 0.2530(4) 0.9362(4) 1.3844(3)
C23 C 0.4041(5) 0.8808(6) 1.4880(5)
H7 H 0.4470 0.8552 1.4423
H8 H 0.4230 0.8341 1.5472
H9 H 0.4128 0.9470 1.4857
C24 C -0.3083(5) 0.9693(7) 1.3056(6)
H10 H -0.3353 1.0414 1.2773
H11 H -0.3535 0.9458 1.3544
H12 H -0.3030 0.9323 1.2612
H13 H 1.173(4) 0.576(4) 0.646(4)
H14 H 1.276(4) 0.671(4) 0.387(3)
H15 H 1.114(4) 0.686(4) 0.338(4)
H16 H 0.968(4) 0.676(4) 0.301(4)
H17 H 0.797(4) 0.702(4) 0.271(4)
H18 H 0.742(3) 0.634(3) 0.535(3)
H19 H -0.137(4) 1.006(4) 1.227(4)
H20 H 0.290(4) 0.963(4) 1.334(4)
H21 H 0.247(5) 0.828(5) 1.603(5)
H22 H 0.084(5) 0.850(5) 1.555(4)
H23 H -0.072(4) 0.852(4) 1.525(4)
H24 H -0.230(5) 0.876(5) 1.473(4)
H25 H 0.462(4) 0.691(4) 1.059(3)
H26 H 0.096(6) 0.710(3) 1.140(5)
H27 H 0.384(4) 0.519(4) 0.838(4)
H28 H 0.502(3) 0.694(3) 0.843(3)
H29 H 0.622(3) 0.888(5) 0.667(4)
H30 H 1.0686(19) 0.397(6) 1.111(5)
N1 N 1.0701(3) 0.6164(3) 0.5481(2)
N2 N 0.8806(3) 0.6371(3) 0.5041(2)
N3 N -0.0343(3) 0.9721(3) 1.3150(2)
N4 N 0.1557(3) 0.9484(3) 1.3642(2)
O32 O 0.8881(6) 0.7945(4) 1.0675(5)
H31 H 0.9323 0.8261 1.0451
H32 H 0.8801 0.7752 1.1249
O33 O 0.2118(3) 1.0818(3) 1.1745(2)
H33 H 0.2436 1.0689 1.1342
H34 H 0.2198 1.1361 1.1755
O34 O 0.0036(3) 1.1083(3) 1.1159(2)
H35 H -0.0531 1.1425 1.1057
H36 H 0.0447 1.1331 1.0765
O35 O 0.8917(2) 0.4900(2) 0.70031(19)
H37 H 0.8399 0.4858 0.6955
H38 H 0.9079 0.4777 0.7481
O36 O 0.0302(2) 1.1631(2) 1.2823(2)
H39 H -0.0236 1.2116 1.2568
H40 H 0.0666 1.1949 1.2986
Mo1A Mo 0.39958(2) 0.42027(2) 1.24290(2)
Mo2A Mo 0.34099(2) 0.30578(2) 1.08865(2)
Mo3A Mo 0.38305(2) 0.61586(2) 1.19200(2)
Mo4A Mo 0.69022(2) 0.23957(2) 1.03062(2)
Mo5A Mo 0.73158(2) 0.32700(2) 1.14416(2)
Mo6A Mo 0.28812(2) 0.41059(2) 0.92394(2)
Co2A Co 0.91418(4) -0.02707(4) 0.76403(3)
Co3A Co 0.05696(4) 0.38748(4) 1.36731(3)
P1A P 0.78473(7) 0.44760(7) 0.92321(6)
P2A P 0.07726(7) 0.57807(8) 0.82502(7)
P3A P 0.81784(10) 0.18195(9) 0.85193(8)
P4A P 0.26057(7) 0.24860(7) 1.30507(6)
Na1A Na 0.05010(14) 0.35496(18) 0.96490(15)
O1A O 0.45847(18) 0.50697(18) 1.13668(16)
O2A O 0.40721(18) 0.39964(18) 0.99523(16)
O3A O 0.61005(18) 0.36091(18) 1.06763(16)
O4A O 0.6988(2) 0.2520(2) 1.24251(17)
O5A O 0.6708(2) 0.4672(2) 1.17194(17)
O6A O 0.1319(2) 0.6627(2) 0.81165(18)
O7A O 0.77526(18) 0.44842(19) 1.02393(16)
O8A O 0.81776(19) 0.2329(2) 1.08245(17)
O9A O 0.73382(18) 0.36488(18) 0.91476(16)
O10A O 0.7806(2) 0.15282(19) 0.95207(17)
O11A O 0.5827(2) 0.2804(2) 0.92808(18)
O12A O 0.6453(2) 0.1448(2) 1.10121(19)
O13A O 0.4003(2) 0.1916(2) 1.07242(19)
O14A O 0.3339(2) 0.3218(2) 0.86880(19)
O15A O 0.1469(2) 0.4713(2) 0.86208(19)
O16A O 0.21157(19) 0.3468(2) 1.02736(17)
O17A O 0.2608(2) 0.2481(2) 1.20520(17)
O18A O 0.4478(2) 0.30297(19) 1.18010(17)
O19A O 0.3271(3) 0.1422(2) 1.3602(2)
O20A O 0.72170(18) 0.55230(18) 0.86542(16)
O21A O 0.3044(2) 0.3329(2) 1.31549(17)
O22A O 0.1541(2) 0.2583(2) 1.34607(18)
O23A O 0.30055(19) 0.53334(19) 1.27349(16)
O24A O 0.7279(2) 0.2574(2) 0.79220(17)
O25A O 0.4707(2) 0.6235(2) 1.25764(19)
O26A O 0.4918(2) 0.3801(2) 1.32012(18)
O27A O -0.0066(2) 0.5939(3) 0.9018(2)
O28A O 0.89438(19) 0.4247(2) 0.89092(17)
O29A O 0.9095(3) 0.2353(3) 0.8447(2)
O30A O 0.8612(2) 0.0894(2) 0.8213(2)
O31A O 0.0246(3) 0.5873(3) 0.7416(2)
C1A C -0.1654(3) 0.3988(4) 1.4241(3)
C2A C -0.2465(4) 0.3819(4) 1.4833(3)
C3A C -0.2256(4) 0.3465(4) 1.5743(3)
C4A C -0.1283(4) 0.3311(4) 1.6044(3)
C5A C -0.0515(3) 0.3527(3) 1.5417(3)
C6A C 0.0546(3) 0.3441(3) 1.5666(3)
C7A C 0.0858(4) 0.3197(4) 1.6552(3)
C8A C 0.1860(4) 0.3134(5) 1.6719(4)
C9A C 0.2545(4) 0.3315(4) 1.6000(3)
C10A C 0.2163(4) 0.3570(4) 1.5137(3)
C11A C -0.3522(4) 0.4008(5) 1.4464(5)
H1A H -0.3960 0.4624 1.4572
H2A H -0.3473 0.4083 1.3820
H3A H -0.3806 0.3437 1.4766
C12A C 0.3647(5) 0.3220(6) 1.6145(5)
H4A H 0.3975 0.3447 1.5567
H5A H 0.3696 0.3636 1.6527
H6A H 0.3981 0.2515 1.6435
C13A C 1.1273(4) 0.0153(4) 0.7134(4)
C14A C 1.2049(4) 0.0486(4) 0.6573(4)
C15A C 1.1815(5) 0.0952(4) 0.5672(4)
C16A C 1.0865(4) 0.1089(4) 0.5363(4)
C17A C 1.0127(4) 0.0750(3) 0.5963(3)
C18A C 0.9079(4) 0.0868(3) 0.5691(3)
C19A C 0.8720(5) 0.1334(4) 0.4798(3)
C20A C 0.7719(5) 0.1436(4) 0.4608(4)
C21A C 0.7055(5) 0.1095(4) 0.5293(4)
C22A C 0.7470(4) 0.0638(4) 0.6156(3)
C23A C 0.5959(5) 0.1192(6) 0.5120(5)
H7A H 0.5530 0.1448 0.5577
H8A H 0.5770 0.1659 0.4528
H9A H 0.5872 0.0530 0.5143
C24A C 1.3083(5) 0.0307(7) 0.6944(6)
H10A H 1.3353 -0.0414 0.7227
H11A H 1.3535 0.0542 0.6456
H12A H 1.3030 0.0677 0.7388
H13A H -0.173(4) 0.424(4) 1.354(4)
H14A H -0.276(4) 0.329(4) 1.613(3)
H15A H -0.114(4) 0.314(4) 1.662(4)
H16A H 0.032(4) 0.324(4) 1.699(4)
H17A H 0.203(4) 0.298(4) 1.729(4)
H18A H 0.258(3) 0.366(3) 1.465(3)
H19A H 1.137(4) -0.006(4) 0.773(4)
H20A H 0.710(4) 0.037(4) 0.666(4)
H21A H 0.753(5) 0.172(5) 0.397(5)
H22A H 0.916(5) 0.150(5) 0.445(4)
H23A H 1.072(4) 0.148(4) 0.475(4)
H24A H 1.230(5) 0.124(5) 0.527(4)
H25A H 0.538(4) 0.309(4) 0.941(3)
H26A H 0.904(6) 0.290(3) 0.860(5)
H27A H 0.616(4) 0.481(4) 1.162(4)
H28A H 0.498(3) 0.306(3) 1.157(3)
H29A H 0.378(3) 0.112(5) 1.333(4)
H30A H -0.0686(19) 0.603(6) 0.889(5)
N1A N -0.0701(3) 0.3836(3) 1.4519(2)
N2A N 0.1194(3) 0.3629(3) 1.4959(2)
N3A N 1.0343(3) 0.0279(3) 0.6850(2)
N4A N 0.8443(3) 0.0516(3) 0.6358(2)
O32A O 0.1119(6) 0.2055(4) 0.9325(5)
H31A H 0.0677 0.1739 0.9549
H32A H 0.1199 0.2248 0.8751
O33A O 0.7882(3) -0.0818(3) 0.8255(2)
H33A H 0.7564 -0.0689 0.8658
H34A H 0.7802 -0.1361 0.8245
O34A O 0.9964(3) -0.1083(3) 0.8841(2)
H35A H 1.0531 -0.1425 0.8943
H36A H 0.9553 -0.1331 0.9235
O35A O 0.1083(2) 0.5100(2) 1.29969(19)
H37A H 0.1601 0.5142 1.3045
H38A H 0.0921 0.5223 1.2519
O36A O 0.9698(2) -0.1631(2) 0.7177(2)
H39A H 1.0236 -0.2116 0.7432
H40A H 0.9334 -0.1949 0.7014
Co3_2 Co -0.05696(4) 0.61252(4) 0.63269(3)
Co3A_2 Co 1.05696(4) 0.38748(4) 1.36731(3)
Na1_2 Na -0.05010(14) 0.64504(18) 1.03510(15)
Na1A_2 Na 1.05010(14) 0.35496(18) 0.96490(15)
O27_2 O 0.0066(2) 0.4061(3) 1.0982(2)
O27A_2 O 0.9934(2) 0.5939(3) 0.9018(2)
O28_2 O 1.10562(19) 0.5753(2) 1.10908(17)
O28A_2 O -0.10562(19) 0.4247(2) 0.89092(17)
O31_2 O -0.0246(3) 0.4127(3) 1.2584(2)
O31A_2 O 1.0246(3) 0.5873(3) 0.7416(2)
O37 O 0.5405(4) 0.9580(4) 0.7463(3)
O38 O 0.0626(6) 0.0242(6) 0.9635(6)
O39 O 0.5552(17) 0.1291(11) 0.7990(12)
O40 O 0.2770(8) 0.0400(6) 0.0069(6)
O41 O 0.463(2) 0.0705(18) 0.941(2)
P5? P 0.2378(7) 0.8485(6) 1.1483(4)
loop_
_geom_bond_atom_site_label_1
_geom_bond_atom_site_label_2
_geom_bond_site_symmetry_1
_geom_bond_site_symmetry_2
Mo1 Mo3 1_555 1_555
Mo2 Mo6 1_555 1_555
Mo3 O1 1_555 1_555
Mo4 Mo5 1_555 1_555
Mo5 O3 1_555 1_555
Mo6 O2 1_555 1_555
Co1 O1 1_555 1_555
Co2 O30 1_555 1_555
Co3 O22 1_555 1_555
P1 O7 1_555 1_555
P2 O6 1_555 1_555
P3 O10 1_555 1_555
P4 O17 1_555 1_555
Na1 O15 1_555 1_555
O1 Mo1 1_555 1_555
O2 Mo2 1_555 1_555
O3 Mo4 1_555 1_555
O4 Mo5 1_555 1_555
O5 Mo5 1_555 1_555
O6 Mo5A 1_555 1_555
O7 Mo5 1_555 1_555
O8 Mo4 1_555 1_555
O9 Mo4 1_555 1_555
O10 Mo4 1_555 1_555
O11 Mo4 1_555 1_555
O12 Mo4 1_555 1_555
O13 Mo2 1_555 1_555
O14 Mo6 1_555 1_555
O15 Mo6 1_555 1_555
O16 Mo2 1_555 1_555
O17 Mo2 1_555 1_555
O18 Mo1 1_555 1_555
O19 P4 1_555 1_555
O20 P1 1_555 1_555
O21 Mo1 1_555 1_555
O22 P4 1_555 1_555
O23 Mo1 1_555 1_555
O24 P3 1_555 1_555
O25 Mo3 1_555 1_555
O26 Mo1 1_555 1_555
O27 P2 1_555 1_555
O28 P1 1_555 1_555
O29 P3 1_555 1_555
O30 P3 1_555 1_555
O31 P2 1_555 1_555
C1 C2 1_555 1_555
C2 C3 1_555 1_555
C3 C4 1_555 1_555
C4 C5 1_555 1_555
C5 C6 1_555 1_555
C6 C7 1_555 1_555
C7 C8 1_555 1_555
C8 C9 1_555 1_555
C9 C10 1_555 1_555
C10 H18 1_555 1_555
C11 C2 1_555 1_555
H1 C11 1_555 1_555
H2 C11 1_555 1_555
H3 C11 1_555 1_555
C12 C9 1_555 1_555
H4 C12 1_555 1_555
H5 C12 1_555 1_555
H6 C12 1_555 1_555
C13 C14 1_555 1_555
C14 C15 1_555 1_555
C15 C16 1_555 1_555
C16 C17 1_555 1_555
C17 C18 1_555 1_555
C18 C19 1_555 1_555
C19 C20 1_555 1_555
C20 C21 1_555 1_555
C21 C22 1_555 1_555
C22 H20 1_555 1_555
C23 C21 1_555 1_555
H7 C23 1_555 1_555
H8 C23 1_555 1_555
H9 C23 1_555 1_555
C24 C14 1_555 1_555
H10 C24 1_555 1_555
H11 C24 1_555 1_555
H12 C24 1_555 1_555
H13 C1 1_555 1_555
H14 C3 1_555 1_555
H15 C4 1_555 1_555
H16 C7 1_555 1_555
H17 C8 1_555 1_555
H19 C13 1_555 1_555
H21 C20 1_555 1_555
H22 C19 1_555 1_555
H23 C16 1_555 1_555
H24 C15 1_555 1_555
H25 O11 1_555 1_555
H26 O29 1_555 1_555
H27 O5 1_555 1_555
H28 O18 1_555 1_555
H29 O19 1_555 1_555
H30 O27 1_555 1_555
N1 Co3 1_555 1_555
N2 Co3 1_555 1_555
N3 Co2 1_555 1_555
N4 Co2 1_555 1_555
O32 Na1 1_555 1_555
H31 O32 1_555 1_555
H32 O32 1_555 1_555
O33 Co2 1_555 1_555
H33 O33 1_555 1_555
H34 O33 1_555 1_555
O34 Co2 1_555 1_555
H35 O34 1_555 1_555
H36 O34 1_555 1_555
O35 Co3 1_555 1_555
H37 O35 1_555 1_555
H38 O35 1_555 1_555
O36 Co2 1_555 1_555
H39 O36 1_555 1_555
H40 O36 1_555 1_555
Mo1A O20 1_555 1_555
Mo2A O20 1_555 1_555
Mo3A O9 1_555 1_555
Mo4A Mo5A 1_555 1_555
Mo5A O3A 1_555 1_555
Mo6A O5 1_555 1_555
Co2A O30A 1_555 1_555
Co3A O22A 1_555 1_555
P1A O7A 1_555 1_555
P2A O6A 1_555 1_555
P3A O10A 1_555 1_555
P4A O17A 1_555 1_555
Na1A O15A 1_555 1_555
O1A Co1 1_555 1_555
O2A Co1 1_555 1_555
O3A Co1 1_555 1_555
O4A Mo5A 1_555 1_555
O5A Mo6 1_555 1_555
O6A Mo5 1_555 1_555
O7A Mo6 1_555 1_555
O8A Mo4A 1_555 1_555
O9A Mo3 1_555 1_555
O10A Mo4A 1_555 1_555
O11A Mo3 1_555 1_555
O12A Mo4A 1_555 1_555
O13A Mo2A 1_555 1_555
O14A Mo6A 1_555 1_555
O15A Mo6A 1_555 1_555
O16A Mo2A 1_555 1_555
O17A Mo2A 1_555 1_555
O18A Mo1A 1_555 1_555
O19A P4A 1_555 1_555
O20A Mo1 1_555 1_555
O21A Mo1A 1_555 1_555
O22A P4A 1_555 1_555
O23A Mo1A 1_555 1_555
O24A Mo3 1_555 1_555
O25A Mo3A 1_555 1_555
O26A Mo1A 1_555 1_555
O27A P2A 1_555 1_555
O28A P1A 1_555 1_555
O29A P3A 1_555 1_555
O30A P3A 1_555 1_555
O31A P2A 1_555 1_555
C1A C2A 1_555 1_555
C2A C3A 1_555 1_555
C3A C4A 1_555 1_555
C4A C5A 1_555 1_555
C5A C6A 1_555 1_555
C6A C7A 1_555 1_555
C7A C8A 1_555 1_555
C8A C9A 1_555 1_555
C9A C10A 1_555 1_555
C10A H18A 1_555 1_555
C11A C2A 1_555 1_555
H1A C11A 1_555 1_555
H2A C11A 1_555 1_555
H3A C11A 1_555 1_555
C12A C9A 1_555 1_555
H4A C12A 1_555 1_555
H5A C12A 1_555 1_555
H6A C12A 1_555 1_555
C13A C14A 1_555 1_555
C14A C15A 1_555 1_555
C15A C16A 1_555 1_555
C16A C17A 1_555 1_555
C17A C18A 1_555 1_555
C18A C19A 1_555 1_555
C19A C20A 1_555 1_555
C20A C21A 1_555 1_555
C21A C22A 1_555 1_555
C22A H20A 1_555 1_555
C23A C21A 1_555 1_555
H7A C23A 1_555 1_555
H8A C23A 1_555 1_555
H9A C23A 1_555 1_555
C24A C14A 1_555 1_555
H10A C24A 1_555 1_555
H11A C24A 1_555 1_555
H12A C24A 1_555 1_555
H13A C1A 1_555 1_555
H14A C3A 1_555 1_555
H15A C4A 1_555 1_555
H16A C7A 1_555 1_555
H17A C8A 1_555 1_555
H19A C13A 1_555 1_555
H21A C20A 1_555 1_555
H22A C19A 1_555 1_555
H23A C16A 1_555 1_555
H24A C15A 1_555 1_555
H25A O11A 1_555 1_555
H26A O29A 1_555 1_555
H27A O5A 1_555 1_555
H28A O18A 1_555 1_555
H29A O19A 1_555 1_555
H30A O27A 1_555 1_555
N1A Co3A 1_555 1_555
N2A Co3A 1_555 1_555
N3A Co2A 1_555 1_555
N4A Co2A 1_555 1_555
O32A Na1A 1_555 1_555
H31A O32A 1_555 1_555
H32A O32A 1_555 1_555
O33A Co2A 1_555 1_555
H33A O33A 1_555 1_555
H34A O33A 1_555 1_555
O34A Co2A 1_555 1_555
H35A O34A 1_555 1_555
H36A O34A 1_555 1_555
O35A Co3A 1_555 1_555
H37A O35A 1_555 1_555
H38A O35A 1_555 1_555
O36A Co2A 1_555 1_555
H39A O36A 1_555 1_555
H40A O36A 1_555 1_555
Co3_2 O31A 1_555 1_555
Co3A_2 O31 1_555 1_555
Na1_2 O28 1_555 1_555
Na1A_2 O27 1_555 1_555
O27_2 Na1A 1_555 1_555
O27A_2 Na1 1_555 1_555
O28_2 Na1 1_555 1_555
O28A_2 Na1A 1_555 1_555
O31_2 Co3A 1_555 1_555
O31A_2 Co3 1_555 1_555
Mo2 O18 1_555 1_555
Mo2 O20A 1_555 1_555
Mo3 O23 1_555 1_555
Mo5 O8 1_555 1_555
Mo6 O16 1_555 1_555
Co1 O2 1_555 1_555
Co1 O3 1_555 1_555
P1 O9 1_555 1_555
P2 O15 1_555 1_555
P4 O21 1_555 1_555
Na1 O16 1_555 1_555
O7 Mo6A 1_555 1_555
O11 Mo3A 1_555 1_555
O24 Mo3A 1_555 1_555
C1 N1 1_555 1_555
C5 N1 1_555 1_555
C6 N2 1_555 1_555
C10 N2 1_555 1_555
C13 N3 1_555 1_555
C17 N3 1_555 1_555
C18 N4 1_555 1_555
C22 N4 1_555 1_555
Mo1A Mo3A 1_555 1_555
Mo1A O1A 1_555 1_555
Mo2A Mo6A 1_555 1_555
Mo2A O2A 1_555 1_555
Mo2A O18A 1_555 1_555
Mo3A O1A 1_555 1_555
Mo3A O23A 1_555 1_555
Mo4A O3A 1_555 1_555
Mo4A O9A 1_555 1_555
Mo4A O11A 1_555 1_555
Mo5A O5A 1_555 1_555
Mo5A O7A 1_555 1_555
Mo5A O8A 1_555 1_555
Mo6A O2A 1_555 1_555
Mo6A O16A 1_555 1_555
P1A O9A 1_555 1_555
P1A O20A 1_555 1_555
P2A O15A 1_555 1_555
P3A O24A 1_555 1_555
P4A O21A 1_555 1_555
Na1A O16A 1_555 1_555
O27A Na1_2 1_555 1_555
O28A Na1A_2 1_555 1_555
C1A N1A 1_555 1_555
C5A N1A 1_555 1_555
C6A N2A 1_555 1_555
C10A N2A 1_555 1_555
C13A N3A 1_555 1_555
C17A N3A 1_555 1_555
C18A N4A 1_555 1_555
C22A N4A 1_555 1_555

#END
