
#######################################################################
#
#                 Cambridge Crystallographic Data Centre
#                                CCDC 
#
#######################################################################
#
# If this CIF has been generated from an entry in the Cambridge 
# Structural Database, then it will include bibliographic, chemical, 
# crystal, experimental, refinement or atomic coordinate data resulting 
# from the CCDC's data processing and validation procedures.
#
#######################################################################

data_YOWLIH
_symmetry_cell_setting           monoclinic
_symmetry_space_group_name_H-M   'P 21/c'
_symmetry_Int_Tables_number      14
_space_group_name_Hall           '-P 2ybc'
loop_
_symmetry_equiv_pos_site_id
_symmetry_equiv_pos_as_xyz
1 x,y,z
2 -x,1/2+y,1/2-z
3 -x,-y,-z
4 x,1/2-y,1/2+z
_cell_length_a                   14.395(3)
_cell_length_b                   8.6750(17)
_cell_length_c                   20.368(4)
_cell_angle_alpha                90
_cell_angle_beta                 95.16(3)
_cell_angle_gamma                90
_cell_volume                     2533.18
loop_
_atom_site_label
_atom_site_type_symbol
_atom_site_fract_x
_atom_site_fract_y
_atom_site_fract_z
U1 U 0.724460(15) 1.73461(3) 0.911236(12)
S1 S 0.30850(11) 0.98546(18) 0.87607(8)
O1 O 0.3663(3) 0.4043(5) 0.6693(2)
O2 O 0.2214(3) 1.0701(6) 0.8687(2)
O3 O 0.3273(3) 0.8836(5) 0.9314(2)
N1 N 0.9022(4) 1.7993(7) 0.9454(3)
N2 N 0.8055(3) 1.6110(6) 1.0199(3)
C1 C 0.3997(4) 1.1229(7) 0.8775(3)
C2 C 0.5472(5) 1.2179(7) 0.9227(3)
H1 H 0.6022 1.2057 0.9498
C3 C 0.3973(5) 0.7974(8) 0.7925(3)
H2 H 0.4530 0.8227 0.8168
C4 C 0.9493(5) 1.7285(7) 0.9981(4)
C5 C 0.5302(4) 1.3533(7) 0.8884(3)
C6 C 0.3137(4) 0.8725(7) 0.8042(3)
C7 C 1.0467(5) 1.7485(7) 1.0139(4)
C8 C 0.4821(4) 1.0998(7) 0.9167(3)
H3 H 0.4936 1.0068 0.9386
C9 C 0.5982(4) 1.4845(7) 0.8950(3)
C10 C 0.7558(5) 1.5298(8) 1.0601(3)
H4 H 0.6927 1.5136 1.0478
C11 C 0.9425(5) 1.5695(8) 1.0975(3)
C12 C 0.3057(4) 0.5102(8) 0.6627(3)
C13 C 1.0419(5) 1.5903(8) 1.1116(4)
H5 H 1.0720 1.5454 1.1491
C14 C 0.7942(5) 1.4679(8) 1.1202(3)
H6 H 0.7566 1.4153 1.1475
C15 C 0.8979(4) 1.6338(7) 1.0399(3)
C16 C 0.3820(5) 1.2575(7) 0.8414(4)
H7 H 0.3272 1.2694 0.8140
C17 C 0.2296(5) 0.7278(7) 0.7180(4)
H8 H 0.1745 0.7060 0.6923
C18 C 0.2313(4) 0.8418(7) 0.7659(3)
H9 H 0.1775 0.8972 0.7723
C19 C 0.4480(4) 1.3725(8) 0.8475(3)
H10 H 0.4377 1.4639 0.8241
C20 C 0.3107(4) 0.6461(7) 0.7082(3)
C21 C 0.3948(4) 0.6852(8) 0.7441(3)
H11 H 0.4496 0.6353 0.7354
C22 C 0.9504(5) 1.8855(8) 0.9067(4)
H12 H 0.9189 1.9326 0.8702
C23 C 1.0949(5) 1.8425(8) 0.9715(4)
H13 H 1.1587 1.8587 0.9798
C24 C 1.0917(5) 1.6740(9) 1.0712(4)
H14 H 1.1559 1.6834 1.0806
C25 C 0.8876(5) 1.4857(8) 1.1384(3)
H15 H 0.9143 1.4426 1.1774
C26 C 1.0469(5) 1.9086(8) 0.9185(4)
H16 H 1.0780 1.9695 0.8899
O4 O 0.2360(3) 0.4981(5) 0.6195(2)
O5 O 0.5802(3) 1.6112(5) 0.8655(2)
O6 O 0.7815(3) 1.6564(5) 0.8457(2)
O7 O 0.6751(3) 1.4686(5) 0.9307(2)
O8 O 0.6631(3) 1.8151(6) 0.9735(2)
U1A U 0.275540(15) 0.23461(3) 0.588764(12)
O1A O 0.6337(3) 1.9043(5) 0.8307(2)
O4A O 0.7640(3) 1.9981(5) 0.8805(2)
O9 O 0.9211(9) 1.6900(15) 0.7456(7)
H17 H 0.9458 1.7788 0.7493
H18 H 0.8645 1.6954 0.7543
loop_
_geom_bond_atom_site_label_1
_geom_bond_atom_site_label_2
_geom_bond_site_symmetry_1
_geom_bond_site_symmetry_2
U1 N1 1_555 1_555
S1 O2 1_555 1_555
O1 C12 1_555 1_555
O3 S1 1_555 1_555
N1 C4 1_555 1_555
N2 U1 1_555 1_555
C1 S1 1_555 1_555
C2 H1 1_555 1_555
C3 H2 1_555 1_555
C4 C7 1_555 1_555
C5 C2 1_555 1_555
C6 S1 1_555 1_555
C7 C23 1_555 1_555
C8 C1 1_555 1_555
H3 C8 1_555 1_555
C9 C5 1_555 1_555
C10 N2 1_555 1_555
H4 C10 1_555 1_555
C11 C13 1_555 1_555
C12 C20 1_555 1_555
C13 H5 1_555 1_555
C14 C10 1_555 1_555
H6 C14 1_555 1_555
C15 N2 1_555 1_555
C16 C1 1_555 1_555
H7 C16 1_555 1_555
C17 H8 1_555 1_555
C18 C6 1_555 1_555
H9 C18 1_555 1_555
C19 C5 1_555 1_555
H10 C19 1_555 1_555
C20 C17 1_555 1_555
C21 C3 1_555 1_555
H11 C21 1_555 1_555
C22 N1 1_555 1_555
H12 C22 1_555 1_555
C23 H13 1_555 1_555
C24 C7 1_555 1_555
H14 C24 1_555 1_555
C25 C11 1_555 1_555
H15 C25 1_555 1_555
C26 C22 1_555 1_555
H16 C26 1_555 1_555
O4 C12 1_555 1_555
O5 U1 1_555 1_555
O6 U1 1_555 1_555
O7 U1 1_555 1_555
O8 U1 1_555 1_555
O9 H17 1_555 1_555
H18 O9 1_555 1_555
U1A O1 1_555 1_555
O1A U1 1_555 1_555
O4A U1 1_555 1_555
C2 C8 1_555 1_555
C3 C6 1_555 1_555
C4 C15 1_555 1_555
C9 O5 1_555 1_555
C9 O7 1_555 1_555
C11 C15 1_555 1_555
C13 C24 1_555 1_555
C14 C25 1_555 1_555
C16 C19 1_555 1_555
C17 C18 1_555 1_555
C20 C21 1_555 1_555
C23 C26 1_555 1_555
O4 U1A 1_555 1_555

#END
