
#######################################################################
#
#                 Cambridge Crystallographic Data Centre
#                                CCDC 
#
#######################################################################
#
# If this CIF has been generated from an entry in the Cambridge 
# Structural Database, then it will include bibliographic, chemical, 
# crystal, experimental, refinement or atomic coordinate data resulting 
# from the CCDC's data processing and validation procedures.
#
#######################################################################

data_YOWQEH
_symmetry_cell_setting           orthorhombic
_symmetry_space_group_name_H-M   'P b c a'
_symmetry_Int_Tables_number      61
_space_group_name_Hall           '-P 2ac 2ab'
loop_
_symmetry_equiv_pos_site_id
_symmetry_equiv_pos_as_xyz
1 x,y,z
2 1/2+x,1/2-y,-z
3 -x,1/2+y,1/2-z
4 1/2-x,-y,1/2+z
5 -x,-y,-z
6 1/2-x,1/2+y,z
7 x,1/2-y,1/2+z
8 1/2+x,y,1/2-z
_cell_length_a                   9.8402(7)
_cell_length_b                   10.3073(8)
_cell_length_c                   20.6805(13)
_cell_angle_alpha                90
_cell_angle_beta                 90
_cell_angle_gamma                90
_cell_volume                     2097.54
loop_
_atom_site_label
_atom_site_type_symbol
_atom_site_fract_x
_atom_site_fract_y
_atom_site_fract_z
Sm1 Sm 0.3630(3) 0.5418(3) 0.33727(9)
P1 P 1.0905(7) 0.7249(7) 0.4159(3)
P2 P 1.0148(7) 0.3941(7) 0.3063(3)
O1 O 0.52903(18) 0.6037(18) 0.4323(7)
C1 C 0.63487(10) 0.5592(6) 0.40846(16)
O2 O 1.1568(18) 0.8591(7) 0.4135(7)
O3 O 0.9215(11) 0.4637(12) 0.2601(7)
O4 O 1.1566(9) 0.4457(12) 0.3044(6)
O5 O 0.6272(3) 0.5122(19) 0.3534(4)
O6 O 0.9967(14) 0.2508(7) 0.3041(7)
O7 O 1.1983(15) 0.6220(10) 0.4069(7)
O8 O 0.257(3) 0.701(3) 0.2522(7)
O9 O 1.0278(17) 0.7086(12) 0.4853(6)
H1 H 1.03721 0.77939 0.50624
C2 C 0.77146(10) 0.5928(11) 0.4372(3)
H2 H 0.77315 0.69057 0.45196
H3 H 0.79565 0.54696 0.47463
C3 C 0.966(2) 0.4578(16) 0.3856(5)
H4 H 0.91701 0.39152 0.40982
H5 H 1.04075 0.48488 0.40868
N1 N 0.8646(11) 0.5729(8) 0.3772(6)
H6 H 0.80782 0.55903 0.34500
C4 C 0.9472(14) 0.6970(13) 0.3605(7)
H7 H 0.89293 0.77167 0.35776
H8 H 0.98682 0.68319 0.31662
Sm1E Sm 1.1370(3) 1.0418(3) 0.33727(9)
Sm1G Sm 0.8630(3) 0.5418(3) 0.16273(9)
Sm1_2 Sm 1.3630(3) 0.5418(3) 0.33727(9)
Sm1E_2 Sm 1.1370(3) 0.0418(3) 0.33727(9)
O2E O 0.3432(18) 0.3591(7) 0.4135(7)
O3G O 0.4215(11) 0.4637(12) 0.2399(7)
O4_2 O 0.1566(9) 0.4457(12) 0.3044(6)
O6E O 0.5033(14) 0.7508(7) 0.3041(7)
O7_2 O 0.1983(15) 0.6220(10) 0.4069(7)
loop_
_geom_bond_atom_site_label_1
_geom_bond_atom_site_label_2
_geom_bond_site_symmetry_1
_geom_bond_site_symmetry_2
Sm1 O1 1_555 1_555
P1 O2 1_555 1_555
P2 O3 1_555 1_555
O1 C1 1_555 1_555
C1 O5 1_555 1_555
O2 Sm1E 1_555 1_555
O3 Sm1G 1_555 1_555
O4 P2 1_555 1_555
O5 Sm1 1_555 1_555
O6 P2 1_555 1_555
O7 P1 1_555 1_555
O8 Sm1 1_555 1_555
O9 P1 1_555 1_555
H1 O9 1_555 1_555
C2 C1 1_555 1_555
H2 C2 1_555 1_555
H3 C2 1_555 1_555
C3 P2 1_555 1_555
H4 C3 1_555 1_555
H5 C3 1_555 1_555
N1 C2 1_555 1_555
H6 N1 1_555 1_555
C4 P1 1_555 1_555
H7 C4 1_555 1_555
H8 C4 1_555 1_555
Sm1_2 O4 1_555 1_555
Sm1E_2 O6 1_555 1_555
O2E Sm1 1_555 1_555
O3G Sm1 1_555 1_555
O4_2 Sm1 1_555 1_555
O6E Sm1 1_555 1_555
O7_2 Sm1 1_555 1_555
O7 Sm1_2 1_555 1_555
C3 N1 1_555 1_555
N1 C4 1_555 1_555

#END
