
#######################################################################
#
#                 Cambridge Crystallographic Data Centre
#                                CCDC 
#
#######################################################################
#
# If this CIF has been generated from an entry in the Cambridge 
# Structural Database, then it will include bibliographic, chemical, 
# crystal, experimental, refinement or atomic coordinate data resulting 
# from the CCDC's data processing and validation procedures.
#
#######################################################################

data_YOWQIL
_symmetry_cell_setting           orthorhombic
_symmetry_space_group_name_H-M   'P b c a'
_symmetry_Int_Tables_number      61
_space_group_name_Hall           '-P 2ac 2ab'
loop_
_symmetry_equiv_pos_site_id
_symmetry_equiv_pos_as_xyz
1 x,y,z
2 1/2+x,1/2-y,-z
3 -x,1/2+y,1/2-z
4 1/2-x,-y,1/2+z
5 -x,-y,-z
6 1/2-x,1/2+y,z
7 x,1/2-y,1/2+z
8 1/2+x,y,1/2-z
_cell_length_a                   9.8328(10)
_cell_length_b                   10.2989(11)
_cell_length_c                   20.6667(12)
_cell_angle_alpha                90
_cell_angle_beta                 90
_cell_angle_gamma                90
_cell_volume                     2092.86
loop_
_atom_site_label
_atom_site_type_symbol
_atom_site_fract_x
_atom_site_fract_y
_atom_site_fract_z
Eu1 Eu 0.3645(4) 0.5428(4) 0.33706(9)
P1 P 1.1018(7) 0.7274(8) 0.4186(3)
P2 P 1.0111(8) 0.3944(8) 0.3092(3)
O1 O 0.52802(20) 0.6103(20) 0.4347(8)
C1 C 0.63355(9) 0.5647(5) 0.41096(11)
O2 O 1.1619(18) 0.8658(7) 0.4121(7)
O3 O 0.9259(12) 0.4510(13) 0.2555(7)
O4 O 1.1570(9) 0.4406(14) 0.3056(7)
O5 O 0.6244(4) 0.527(3) 0.3542(4)
O6 O 1.0011(15) 0.2481(7) 0.3105(7)
O7 O 1.2233(15) 0.6333(11) 0.4154(7)
O8 O 0.264(4) 0.693(4) 0.2524(7)
O9 O 1.0457(18) 0.7188(13) 0.4899(6)
H1 H 1.04679 0.79096 0.50764
C2 C 0.77059(10) 0.5986(10) 0.4393(2)
H2 H 0.77542 0.67728 0.45344
H3 H 0.79512 0.53154 0.47131
C3 C 0.955(3) 0.4534(16) 0.3883(5)
H4 H 0.91425 0.38798 0.41188
H5 H 1.04251 0.47609 0.41313
N1 N 0.8702(12) 0.5791(8) 0.3819(6)
H6 H 0.82100 0.55891 0.34473
C4 C 0.9588(15) 0.6970(15) 0.3641(7)
H7 H 0.89331 0.77192 0.36777
H8 H 0.98563 0.69412 0.32095
Eu1E Eu 1.1355(4) 1.0428(4) 0.33706(9)
Eu1G Eu 0.8645(4) 0.5428(4) 0.16294(9)
Eu1_2 Eu 1.3645(4) 0.5428(4) 0.33706(9)
Eu1E_2 Eu 1.1355(4) 0.0428(4) 0.33706(9)
O2E O 0.3381(18) 0.3658(7) 0.4121(7)
O3G O 0.4259(12) 0.4510(13) 0.2445(7)
O4_2 O 0.1570(9) 0.4406(14) 0.3056(7)
O6E O 0.4989(15) 0.7481(7) 0.3105(7)
O7_2 O 0.2233(15) 0.6333(11) 0.4154(7)
loop_
_geom_bond_atom_site_label_1
_geom_bond_atom_site_label_2
_geom_bond_site_symmetry_1
_geom_bond_site_symmetry_2
Eu1 O1 1_555 1_555
P1 O2 1_555 1_555
P2 O3 1_555 1_555
O1 C1 1_555 1_555
C1 O5 1_555 1_555
O2 Eu1E 1_555 1_555
O3 Eu1G 1_555 1_555
O4 P2 1_555 1_555
O5 Eu1 1_555 1_555
O6 P2 1_555 1_555
O7 P1 1_555 1_555
O8 Eu1 1_555 1_555
O9 P1 1_555 1_555
H1 O9 1_555 1_555
C2 C1 1_555 1_555
H2 C2 1_555 1_555
H3 C2 1_555 1_555
C3 P2 1_555 1_555
H4 C3 1_555 1_555
H5 C3 1_555 1_555
N1 C2 1_555 1_555
H6 N1 1_555 1_555
C4 P1 1_555 1_555
H7 C4 1_555 1_555
H8 C4 1_555 1_555
Eu1_2 O4 1_555 1_555
Eu1E_2 O6 1_555 1_555
O2E Eu1 1_555 1_555
O3G Eu1 1_555 1_555
O4_2 Eu1 1_555 1_555
O6E Eu1 1_555 1_555
O7_2 Eu1 1_555 1_555
O7 Eu1_2 1_555 1_555
C3 N1 1_555 1_555
N1 C4 1_555 1_555

#END
