
#######################################################################
#
#                 Cambridge Crystallographic Data Centre
#                                CCDC 
#
#######################################################################
#
# If this CIF has been generated from an entry in the Cambridge 
# Structural Database, then it will include bibliographic, chemical, 
# crystal, experimental, refinement or atomic coordinate data resulting 
# from the CCDC's data processing and validation procedures.
#
#######################################################################

data_YOWRIM
_symmetry_cell_setting           orthorhombic
_symmetry_space_group_name_H-M   'P b c a'
_symmetry_Int_Tables_number      61
_space_group_name_Hall           '-P 2ac 2ab'
loop_
_symmetry_equiv_pos_site_id
_symmetry_equiv_pos_as_xyz
1 x,y,z
2 1/2+x,1/2-y,-z
3 -x,1/2+y,1/2-z
4 1/2-x,-y,1/2+z
5 -x,-y,-z
6 1/2-x,1/2+y,z
7 x,1/2-y,1/2+z
8 1/2+x,y,1/2-z
_cell_length_a                   9.6224(14)
_cell_length_b                   10.0504(15)
_cell_length_c                   20.334(3)
_cell_angle_alpha                90
_cell_angle_beta                 90
_cell_angle_gamma                90
_cell_volume                     1966.48
loop_
_atom_site_label
_atom_site_type_symbol
_atom_site_fract_x
_atom_site_fract_y
_atom_site_fract_z
Er1 Er 0.3627(4) 0.5428(4) 0.33483(19)
P1 P 1.0943(8) 0.7288(8) 0.4133(4)
P2 P 1.0247(8) 0.3793(8) 0.3071(4)
O1 O 0.53039(11) 0.603(4) 0.4298(8)
C1 C 0.63813(8) 0.5745(6) 0.39954(20)
O2 O 1.143(2) 0.8731(7) 0.4058(11)
O3 O 0.9351(16) 0.4452(14) 0.2542(12)
O4 O 1.1724(11) 0.4319(14) 0.3030(12)
O5 O 0.6269(5) 0.498(2) 0.3519(10)
O6 O 1.0216(18) 0.2293(7) 0.2976(13)
O7 O 1.2191(18) 0.6365(13) 0.4065(11)
O8 O 0.238(4) 0.681(4) 0.2514(17)
O9 O 1.033(2) 0.7119(14) 0.4825(8)
H1 H 1.04217 0.78399 0.50387
C2 C 0.77875(10) 0.6010(12) 0.4298(4)
H2 H 0.78882 0.69222 0.44305
H3 H 0.79691 0.54368 0.46652
C3 C 0.958(3) 0.4408(18) 0.3853(6)
H4 H 0.90021 0.37435 0.40567
H5 H 1.03287 0.46156 0.41445
N1 N 0.8713(12) 0.5672(8) 0.3702(7)
H6 H 0.81535 0.54910 0.33589
C4 C 0.9657(18) 0.6851(18) 0.3508(7)
H7 H 0.90873 0.76120 0.34207
H8 H 1.01363 0.66278 0.31076
Er1_2 Er 1.3627(4) 0.5428(4) 0.33483(19)
Er1E Er 1.1373(4) 0.0428(4) 0.33483(19)
Er1E_2 Er 1.1373(4) 1.0428(4) 0.33483(19)
Er1G Er 0.8627(4) 0.5428(4) 0.16517(19)
O2E O 0.357(2) 0.3731(7) 0.4058(11)
O3G O 0.4351(16) 0.4452(14) 0.2458(12)
O4_2 O 0.1724(11) 0.4319(14) 0.3030(12)
O6E O 0.4784(18) 0.7293(7) 0.2976(13)
O7_2 O 0.2191(18) 0.6365(13) 0.4065(11)
loop_
_geom_bond_atom_site_label_1
_geom_bond_atom_site_label_2
_geom_bond_site_symmetry_1
_geom_bond_site_symmetry_2
Er1 O1 1_555 1_555
P1 O2 1_555 1_555
P2 O3 1_555 1_555
O1 C1 1_555 1_555
C1 O5 1_555 1_555
O2 Er1E_2 1_555 1_555
O3 Er1G 1_555 1_555
O4 P2 1_555 1_555
O5 Er1 1_555 1_555
O6 P2 1_555 1_555
O7 P1 1_555 1_555
O8 Er1 1_555 1_555
O9 P1 1_555 1_555
H1 O9 1_555 1_555
C2 C1 1_555 1_555
H2 C2 1_555 1_555
H3 C2 1_555 1_555
C3 P2 1_555 1_555
H4 C3 1_555 1_555
H5 C3 1_555 1_555
N1 C2 1_555 1_555
H6 N1 1_555 1_555
C4 P1 1_555 1_555
H7 C4 1_555 1_555
H8 C4 1_555 1_555
Er1_2 O4 1_555 1_555
Er1E O6 1_555 1_555
O2E Er1 1_555 1_555
O3G Er1 1_555 1_555
O4_2 Er1 1_555 1_555
O6E Er1 1_555 1_555
O7_2 Er1 1_555 1_555
O7 Er1_2 1_555 1_555
C3 N1 1_555 1_555
N1 C4 1_555 1_555

#END
