
#######################################################################
#
#                 Cambridge Crystallographic Data Centre
#                                CCDC 
#
#######################################################################
#
# If this CIF has been generated from an entry in the Cambridge 
# Structural Database, then it will include bibliographic, chemical, 
# crystal, experimental, refinement or atomic coordinate data resulting 
# from the CCDC's data processing and validation procedures.
#
#######################################################################

data_YOWREI
_symmetry_cell_setting           orthorhombic
_symmetry_space_group_name_H-M   'P b c a'
_symmetry_Int_Tables_number      61
_space_group_name_Hall           '-P 2ac 2ab'
loop_
_symmetry_equiv_pos_site_id
_symmetry_equiv_pos_as_xyz
1 x,y,z
2 1/2+x,1/2-y,-z
3 -x,1/2+y,1/2-z
4 1/2-x,-y,1/2+z
5 -x,-y,-z
6 1/2-x,1/2+y,z
7 x,1/2-y,1/2+z
8 1/2+x,y,1/2-z
_cell_length_a                   9.7409(6)
_cell_length_b                   10.1812(6)
_cell_length_c                   20.6262(13)
_cell_angle_alpha                90
_cell_angle_beta                 90
_cell_angle_gamma                90
_cell_volume                     2045.58
loop_
_atom_site_label
_atom_site_type_symbol
_atom_site_fract_x
_atom_site_fract_y
_atom_site_fract_z
Ho1 Ho 0.3633(2) 0.5432(2) 0.33517(10)
P1 P 1.0958(7) 0.7262(6) 0.4116(3)
P2 P 1.0272(6) 0.3870(6) 0.3021(3)
O1 O 0.53078(11) 0.6022(13) 0.4373(3)
C1 C 0.63544(8) 0.5764(7) 0.40557(19)
O2 O 1.1339(15) 0.8705(6) 0.4021(6)
O3 O 0.9238(10) 0.4573(10) 0.2607(7)
O4 O 1.1654(8) 0.4381(11) 0.3053(7)
O5 O 0.6210(3) 0.5127(12) 0.3548(4)
O6 O 1.0041(12) 0.2429(6) 0.3037(7)
O7 O 1.2102(12) 0.6295(9) 0.4027(7)
O8 O 0.2576(18) 0.6883(18) 0.2472(7)
O9 O 1.0262(15) 0.7088(10) 0.4772(6)
H1 H 1.03552 0.77593 0.49941
C2 C 0.77609(10) 0.5944(12) 0.4350(3)
H2 H 0.77789 0.69609 0.44780
H3 H 0.79628 0.55315 0.47466
C3 C 0.9659(18) 0.4431(13) 0.3814(5)
H4 H 0.91132 0.37679 0.40224
H5 H 1.03911 0.46641 0.40910
N1 N 0.8718(11) 0.5657(8) 0.3750(5)
H6 H 0.81129 0.55313 0.34383
C4 C 0.9592(14) 0.6878(13) 0.3547(6)
H7 H 0.90271 0.76346 0.34871
H8 H 0.99988 0.66690 0.31295
Ho1E Ho 1.1367(2) 1.0432(2) 0.33517(10)
Ho1G Ho 0.8633(2) 0.5432(2) 0.16483(10)
Ho1_2 Ho 1.3633(2) 0.5432(2) 0.33517(10)
Ho1E_2 Ho 1.1367(2) 0.0432(2) 0.33517(10)
O2E O 0.3661(15) 0.3705(6) 0.4021(6)
O3G O 0.4238(10) 0.4573(10) 0.2393(7)
O4_2 O 0.1654(8) 0.4381(11) 0.3053(7)
O6E O 0.4959(12) 0.7429(6) 0.3037(7)
O7_2 O 0.2102(12) 0.6295(9) 0.4027(7)
loop_
_geom_bond_atom_site_label_1
_geom_bond_atom_site_label_2
_geom_bond_site_symmetry_1
_geom_bond_site_symmetry_2
Ho1 O1 1_555 1_555
P1 O2 1_555 1_555
P2 O3 1_555 1_555
O1 C1 1_555 1_555
C1 O5 1_555 1_555
O2 Ho1E 1_555 1_555
O3 Ho1G 1_555 1_555
O4 P2 1_555 1_555
O5 Ho1 1_555 1_555
O6 P2 1_555 1_555
O7 P1 1_555 1_555
O8 Ho1 1_555 1_555
O9 P1 1_555 1_555
H1 O9 1_555 1_555
C2 C1 1_555 1_555
H2 C2 1_555 1_555
H3 C2 1_555 1_555
C3 P2 1_555 1_555
H4 C3 1_555 1_555
H5 C3 1_555 1_555
N1 C2 1_555 1_555
H6 N1 1_555 1_555
C4 P1 1_555 1_555
H7 C4 1_555 1_555
H8 C4 1_555 1_555
Ho1_2 O4 1_555 1_555
Ho1E_2 O6 1_555 1_555
O2E Ho1 1_555 1_555
O3G Ho1 1_555 1_555
O4_2 Ho1 1_555 1_555
O6E Ho1 1_555 1_555
O7_2 Ho1 1_555 1_555
O7 Ho1_2 1_555 1_555
C3 N1 1_555 1_555
N1 C4 1_555 1_555

#END
