
#######################################################################
#
#                 Cambridge Crystallographic Data Centre
#                                CCDC 
#
#######################################################################
#
# If this CIF has been generated from an entry in the Cambridge 
# Structural Database, then it will include bibliographic, chemical, 
# crystal, experimental, refinement or atomic coordinate data resulting 
# from the CCDC's data processing and validation procedures.
#
#######################################################################

data_YOXDAR01
_symmetry_cell_setting           monoclinic
_symmetry_space_group_name_H-M   'P 21/c'
_symmetry_Int_Tables_number      14
_space_group_name_Hall           '-P 2ybc'
loop_
_symmetry_equiv_pos_site_id
_symmetry_equiv_pos_as_xyz
1 x,y,z
2 -x,1/2+y,1/2-z
3 -x,-y,-z
4 x,1/2-y,1/2+z
_cell_length_a                   6.9818(14)
_cell_length_b                   7.6684(15)
_cell_length_c                   13.246(4)
_cell_angle_alpha                90
_cell_angle_beta                 111.13(3)
_cell_angle_gamma                90
_cell_volume                     661.499
loop_
_atom_site_label
_atom_site_type_symbol
_atom_site_fract_x
_atom_site_fract_y
_atom_site_fract_z
Ni1 Ni 1.0000 0.5000 0.5000
S1 S 1.3943(2) 0.4316(2) 0.85927(11)
N1 N 1.1051(5) 0.4982(4) 0.6574(3)
N2 N 0.9998(5) 0.8181(4) 0.4946(3)
N3 N 0.6984(4) 0.5026(4) 0.4993(2)
C1 C 1.2266(6) 0.4701(5) 0.7424(3)
C2 C 0.9291(6) 0.9172(6) 0.4074(4)
H1 H 0.8778 0.8635 0.3400
C3 C 1.0720(7) 0.9039(6) 0.5880(4)
H2 H 1.1247 0.8410 0.6522
C4 C 0.6445(6) 0.3993(5) 0.5658(3)
H3 H 0.7430 0.3268 0.6133
C5 C 0.5512(6) 0.6031(5) 0.4339(3)
H4 H 0.5820 0.6775 0.3864
Ni1_2 Ni 1.0000 1.5000 0.5000
Ni1_3 Ni 0.0000 0.5000 0.5000
S1B S 0.6057(2) 0.5684(2) 0.14073(11)
N1B N 0.8949(5) 0.5018(4) 0.3426(3)
N2B N 1.0002(5) 1.1819(4) 0.5054(3)
N2B_2 N 1.0002(5) 0.1819(4) 0.5054(3)
N3B N 0.3016(4) 0.4974(4) 0.5007(2)
N3B_2 N 1.3016(4) 0.4974(4) 0.5007(2)
C1B C 0.7734(6) 0.5299(5) 0.2576(3)
C2B C 1.0709(6) 1.0828(6) 0.5926(4)
H1B H 1.1222 1.1365 0.6600
C3B C 0.9280(7) 1.0961(6) 0.4120(4)
H2B H 0.8753 1.1590 0.3478
C4B C 0.3555(6) 0.6007(5) 0.4342(3)
H3B H 0.2570 0.6732 0.3867
C5B C 0.4488(6) 0.3969(5) 0.5661(3)
H4B H 0.4180 0.3225 0.6136
loop_
_geom_bond_atom_site_label_1
_geom_bond_atom_site_label_2
_geom_bond_site_symmetry_1
_geom_bond_site_symmetry_2
Ni1 N1 1_555 1_555
S1 C1 1_555 1_555
N1 C1 1_555 1_555
N2 Ni1 1_555 1_555
N3 Ni1 1_555 1_555
C2 N2 1_555 1_555
H1 C2 1_555 1_555
C3 N2 1_555 1_555
H2 C3 1_555 1_555
C4 N3 1_555 1_555
H3 C4 1_555 1_555
C5 N3 1_555 1_555
H4 C5 1_555 1_555
Ni1_2 N2B 1_555 1_555
Ni1_3 N3B 1_555 1_555
S1B C1B 1_555 1_555
N1B Ni1 1_555 1_555
N2B C2B 1_555 1_555
N2B_2 Ni1 1_555 1_555
N3B C4B 1_555 1_555
N3B_2 Ni1 1_555 1_555
C1B N1B 1_555 1_555
C2B C3 1_555 1_555
H1B C2B 1_555 1_555
C3B C2 1_555 1_555
H2B C3B 1_555 1_555
C4B C5 1_555 1_555
H3B C4B 1_555 1_555
C5B C4 1_555 1_555
H4B C5B 1_555 1_555
N2B C3B 1_555 1_555
N3B C5B 1_555 1_555

#END
