
#######################################################################
#
#                 Cambridge Crystallographic Data Centre
#                                CCDC 
#
#######################################################################
#
# If this CIF has been generated from an entry in the Cambridge 
# Structural Database, then it will include bibliographic, chemical, 
# crystal, experimental, refinement or atomic coordinate data resulting 
# from the CCDC's data processing and validation procedures.
#
#######################################################################

data_YOXGID
_symmetry_cell_setting           monoclinic
_symmetry_space_group_name_H-M   'P 21/m'
_symmetry_Int_Tables_number      11
_space_group_name_Hall           '-P 2yb'
loop_
_symmetry_equiv_pos_site_id
_symmetry_equiv_pos_as_xyz
1 x,y,z
2 -x,1/2+y,-z
3 -x,-y,-z
4 x,1/2-y,z
_cell_length_a                   9.6487(15)
_cell_length_b                   16.249(3)
_cell_length_c                   14.644(2)
_cell_angle_alpha                90
_cell_angle_beta                 101.272(2)
_cell_angle_gamma                90
_cell_volume                     2251.62
loop_
_atom_site_label
_atom_site_type_symbol
_atom_site_fract_x
_atom_site_fract_y
_atom_site_fract_z
U1 U 0.305360(19) 0.494116(10) 0.037273(12)
U2 U 0.888735(18) 0.508252(10) 0.366115(12)
Mn1 Mn 0.45350(8) 0.43889(4) 0.33306(5)
P1 P 0.00983(13) 0.55513(7) 0.14770(9)
P2 P 0.57165(13) 0.55344(7) 0.18471(9)
P3 P 0.72921(13) 0.44579(7) 0.52433(9)
O1 O 0.3322(4) 0.3882(2) 0.0668(2)
O2 O 0.2847(4) 0.6000(2) 0.0087(2)
O3 O 0.9166(4) 0.4026(2) 0.3439(2)
O4 O 0.8622(3) 0.61349(19) 0.3896(2)
O5 O 0.1291(4) 0.50495(19) 0.1202(3)
O6 O 0.0041(3) 0.5373(2) 0.2492(2)
O7 O -0.1296(4) 0.5376(2) 0.0822(2)
O8 O 0.4348(4) 0.51969(19) 0.2097(2)
O9 O 0.5613(3) 0.5282(2) 0.0819(2)
O10 O 0.7021(4) 0.51738(19) 0.2447(2)
O11 O 0.6684(3) 0.46249(19) 0.4200(2)
O12 O 0.8823(3) 0.48074(19) 0.5341(2)
O13 O 0.6435(4) 0.48062(19) 0.5893(2)
O14 O 0.2397(3) 0.3931(2) 0.2610(2)
N1 N 0.5500(4) 0.3234(2) 0.2707(3)
N2 N 0.4139(4) 0.3232(2) 0.4151(3)
C1 C 0.0396(5) 0.6638(3) 0.1408(3)
C2 C 0.0112(5) 0.7075(3) 0.0566(4)
H1 H -0.0078 0.6790 0.0005
C3 C 0.0738(5) 0.7075(3) 0.2243(3)
H2 H 0.0968 0.6791 0.2804
C4 C 0.5728(5) 0.6636(3) 0.1917(3)
C5 C 0.4466(5) 0.7072(3) 0.1905(4)
H3 H 0.3627 0.6787 0.1897
C6 C 0.6970(6) 0.7073(3) 0.1946(4)
H4 H 0.7814 0.6791 0.1966
C7 C 0.7441(5) 0.3365(3) 0.5407(3)
C8 C 0.8427(5) 0.2919(3) 0.5019(3)
H5 H 0.9093 0.3201 0.4757
C9 C 0.6563(5) 0.2927(3) 0.5880(3)
H6 H 0.5968 0.3210 0.6200
C10 C 0.6171(5) 0.3228(3) 0.1989(3)
H7 H 0.6403 0.3726 0.1744
C11 C 0.6531(8) 0.2500 0.1603(5)
H8 H 0.6995 0.2500 0.1103
C12 C 0.5201(7) 0.2500 0.3027(5)
C13 C 0.4454(7) 0.2500 0.3829(5)
C14 C 0.3419(5) 0.3229(3) 0.4839(4)
H9 H 0.3178 0.3727 0.5079
C15 C 0.3021(8) 0.2500 0.5206(5)
H10 H 0.2506 0.2500 0.5680
P1C P 0.00983(13) 0.94487(7) 0.14770(9)
O5C O 0.1291(4) 0.99505(19) 0.1202(3)
O6C O 0.0041(3) 0.9627(2) 0.2492(2)
O7C O -0.1296(4) 0.9624(2) 0.0822(2)
C1C C 0.0396(5) 0.8362(3) 0.1408(3)
C2C C 0.0112(5) 0.7925(3) 0.0566(4)
H1C H -0.0078 0.8210 0.0005
C3C C 0.0738(5) 0.7925(3) 0.2243(3)
H2C H 0.0968 0.8209 0.2804
P2C P 0.57165(13) 0.94656(7) 0.18471(9)
O8C O 0.4348(4) 0.98031(19) 0.2097(2)
O9C O 0.5613(3) 0.9718(2) 0.0819(2)
O10C O 0.7021(4) 0.98262(19) 0.2447(2)
C4C C 0.5728(5) 0.8364(3) 0.1917(3)
C5C C 0.4466(5) 0.7928(3) 0.1905(4)
H3C H 0.3627 0.8213 0.1897
C6C C 0.6970(6) 0.7927(3) 0.1946(4)
H4C H 0.7814 0.8209 0.1966
P3C P 0.72921(13) 0.05421(7) 0.52433(9)
O11C O 0.6684(3) 0.03751(19) 0.4200(2)
O12C O 0.8823(3) 0.01926(19) 0.5341(2)
O13C O 0.6435(4) 0.01938(19) 0.5893(2)
C7C C 0.7441(5) 0.1635(3) 0.5407(3)
C8C C 0.8427(5) 0.2081(3) 0.5019(3)
H5C H 0.9093 0.1799 0.4757
C9C C 0.6563(5) 0.2073(3) 0.5880(3)
H6C H 0.5968 0.1790 0.6200
N1C N 0.5500(4) 0.1766(2) 0.2707(3)
N2C N 0.4139(4) 0.1768(2) 0.4151(3)
C10C C 0.6171(5) 0.1772(3) 0.1989(3)
H7C H 0.6403 0.1274 0.1744
C14C C 0.3419(5) 0.1771(3) 0.4839(4)
H9C H 0.3178 0.1273 0.5079
U1B U -0.305360(19) 0.505884(10) -0.037273(12)
O1B O -0.3322(4) 0.6118(2) -0.0668(2)
O2B O -0.2847(4) 0.4000(2) -0.0087(2)
U2_2 U -0.111265(18) 0.508252(10) 0.366115(12)
O3_2 O -0.0834(4) 0.4026(2) 0.3439(2)
O4_2 O -0.1378(3) 0.61349(19) 0.3896(2)
Mn1B Mn 0.54650(8) 0.56111(4) 0.66694(5)
O14B O 0.7603(3) 0.6069(2) 0.7390(2)
U1A U -0.305360(19) 0.994116(10) -0.037273(12)
U1A_2 U 0.694640(19) 0.994116(10) -0.037273(12)
U1B_2 U 0.694640(19) 0.505884(10) -0.037273(12)
U1C U 0.305360(19) 1.005884(10) 0.037273(12)
U2A U 1.111265(18) 0.008252(10) 0.633885(12)
U2B U 1.111265(18) 0.491748(10) 0.633885(12)
U2C U -0.111265(18) 0.991748(10) 0.366115(12)
U2C_2 U 0.888735(18) -0.008252(10) 0.366115(12)
U2C_3 U 0.888735(18) 0.991748(10) 0.366115(12)
Mn1A Mn 0.54650(8) -0.06111(4) 0.66694(5)
Mn1C Mn 0.45350(8) 0.06111(4) 0.33306(5)
Mn1C_2 Mn 0.45350(8) 1.06111(4) 0.33306(5)
O5B O -0.1291(4) 0.49505(19) -0.1202(3)
O6_2 O 1.0041(3) 0.5373(2) 0.2492(2)
O7B O 0.1296(4) 0.4624(2) -0.0822(2)
O8B O -0.4348(4) 0.48031(19) -0.2097(2)
O8B_2 O 0.5652(4) 0.48031(19) 0.7903(2)
O9_2 O -0.4387(3) 0.5282(2) 0.0819(2)
O9B O -0.5613(3) 0.4718(2) -0.0819(2)
O9B_2 O 0.4387(3) 0.4718(2) -0.0819(2)
O10_2 O -0.2979(4) 0.51738(19) 0.2447(2)
O11_2 O -0.3316(3) 0.46249(19) 0.4200(2)
O11B O 0.3316(3) 0.53751(19) 0.5800(2)
O12_2 O -0.1177(3) 0.48074(19) 0.5341(2)
O12B O 0.1177(3) 0.51926(19) 0.4659(2)
O12B_2 O 1.1177(3) 0.51926(19) 0.4659(2)
O13B O 0.3565(4) 0.51938(19) 0.4107(2)
N1B N 0.4500(4) 0.6766(2) 0.7293(3)
N2B N 0.5861(4) 0.6768(2) 0.5849(3)
O15 O 0.2284(7) 0.2500 0.1551(4)
O16 O 0.0874(9) 0.2500 0.3238(6)
loop_
_geom_bond_atom_site_label_1
_geom_bond_atom_site_label_2
_geom_bond_site_symmetry_1
_geom_bond_site_symmetry_2
U1 O1 1_555 1_555
U2 O3 1_555 1_555
Mn1 O8 1_555 1_555
P1 O5 1_555 1_555
P2 O8 1_555 1_555
P3 O11 1_555 1_555
O2 U1 1_555 1_555
O4 U2 1_555 1_555
O5 U1 1_555 1_555
O6 P1 1_555 1_555
O7 P1 1_555 1_555
O8 U1 1_555 1_555
O9 U1 1_555 1_555
O10 U2 1_555 1_555
O11 U2 1_555 1_555
O12 U2 1_555 1_555
O13 P3 1_555 1_555
O14 Mn1 1_555 1_555
N1 Mn1 1_555 1_555
N2 Mn1 1_555 1_555
C1 P1 1_555 1_555
C2 C1 1_555 1_555
H1 C2 1_555 1_555
C3 C1 1_555 1_555
H2 C3 1_555 1_555
C4 P2 1_555 1_555
C5 C4 1_555 1_555
H3 C5 1_555 1_555
C6 C4 1_555 1_555
H4 C6 1_555 1_555
C7 P3 1_555 1_555
C8 C7 1_555 1_555
H5 C8 1_555 1_555
C9 C7 1_555 1_555
H6 C9 1_555 1_555
C10 N1 1_555 1_555
H7 C10 1_555 1_555
C11 C10 1_555 1_555
H8 C11 1_555 1_555
C12 N1 1_555 1_555
C13 N2 1_555 1_555
C14 N2 1_555 1_555
H9 C14 1_555 1_555
C15 C14 1_555 1_555
H10 C15 1_555 1_555
P1C O5C 1_555 1_555
O5C U1C 1_555 1_555
O6C P1C 1_555 1_555
O7C P1C 1_555 1_555
C1C P1C 1_555 1_555
C2C C2 1_555 1_555
H1C C2C 1_555 1_555
C3C C3 1_555 1_555
H2C C3C 1_555 1_555
P2C O8C 1_555 1_555
O8C U1C 1_555 1_555
O9C P2C 1_555 1_555
O10C P2C 1_555 1_555
C4C P2C 1_555 1_555
C5C C5 1_555 1_555
H3C C5C 1_555 1_555
C6C C6 1_555 1_555
H4C C6C 1_555 1_555
P3C O11C 1_555 1_555
O11C U2C_2 1_555 1_555
O12C P3C 1_555 1_555
O13C P3C 1_555 1_555
C7C P3C 1_555 1_555
C8C C8 1_555 1_555
H5C C8C 1_555 1_555
C9C C9 1_555 1_555
H6C C9C 1_555 1_555
N1C C12 1_555 1_555
N2C C13 1_555 1_555
C10C C11 1_555 1_555
H7C C10C 1_555 1_555
C14C C15 1_555 1_555
H9C C14C 1_555 1_555
U1B O7 1_555 1_555
O1B U1B 1_555 1_555
O2B U1B 1_555 1_555
U2_2 O6 1_555 1_555
O3_2 U2_2 1_555 1_555
O4_2 U2_2 1_555 1_555
Mn1B O13 1_555 1_555
O14B Mn1B 1_555 1_555
U1A O7C 1_555 1_555
U1A_2 O9C 1_555 1_555
U1B_2 O9 1_555 1_555
U1C O9C 1_555 1_555
U2A O12C 1_555 1_555
U2B O12 1_555 1_555
U2C O6C 1_555 1_555
U2C_2 O12C 1_555 1_555
U2C_3 O10C 1_555 1_555
Mn1A O13C 1_555 1_555
Mn1C O11C 1_555 1_555
Mn1C_2 O8C 1_555 1_555
O5B U1B 1_555 1_555
O6_2 U2 1_555 1_555
O7B U1 1_555 1_555
O8B U1B 1_555 1_555
O8B_2 Mn1B 1_555 1_555
O9_2 U1B 1_555 1_555
O9B U1B 1_555 1_555
O9B_2 U1 1_555 1_555
O10_2 U2_2 1_555 1_555
O11_2 U2_2 1_555 1_555
O11B Mn1B 1_555 1_555
O12_2 U2_2 1_555 1_555
O12B U2_2 1_555 1_555
O12B_2 U2 1_555 1_555
O13B Mn1 1_555 1_555
N1B Mn1B 1_555 1_555
N2B Mn1B 1_555 1_555
Mn1 O11 1_555 1_555
P2 O9 1_555 1_555
P2 O10 1_555 1_555
P3 O12 1_555 1_555
C12 C13 1_555 1_555
C1C C2C 1_555 1_555
C1C C3C 1_555 1_555
C4C C5C 1_555 1_555
C4C C6C 1_555 1_555
C7C C8C 1_555 1_555
C7C C9C 1_555 1_555
N1C C10C 1_555 1_555
N1C Mn1C 1_555 1_555
N2C C14C 1_555 1_555
N2C Mn1C 1_555 1_555
U1B_2 O9B_2 1_555 1_555
U2B O12B_2 1_555 1_555

#END
