
#######################################################################
#
#                 Cambridge Crystallographic Data Centre
#                                CCDC 
#
#######################################################################
#
# If this CIF has been generated from an entry in the Cambridge 
# Structural Database, then it will include bibliographic, chemical, 
# crystal, experimental, refinement or atomic coordinate data resulting 
# from the CCDC's data processing and validation procedures.
#
#######################################################################

data_YOXHOK
_symmetry_cell_setting           triclinic
_symmetry_space_group_name_H-M   'P -1'
_symmetry_Int_Tables_number      2
_space_group_name_Hall           '-P 1'
loop_
_symmetry_equiv_pos_site_id
_symmetry_equiv_pos_as_xyz
1 x,y,z
2 -x,-y,-z
_cell_length_a                   7.32310(10)
_cell_length_b                   8.67240(10)
_cell_length_c                   14.6870(2)
_cell_angle_alpha                94.2340(10)
_cell_angle_beta                 95.0560(10)
_cell_angle_gamma                107.9730(10)
_cell_volume                     878.748
loop_
_atom_site_label
_atom_site_type_symbol
_atom_site_fract_x
_atom_site_fract_y
_atom_site_fract_z
Bi1 Bi -0.064101(14) 0.265184(12) 0.135894(7)
C1 C 0.3740(4) 0.4493(4) 0.2341(2)
H1 H 0.4288 0.3609 0.2293
H2 H 0.4582 0.5343 0.2794
C2 C 0.3671(4) 0.5166(4) 0.1418(2)
C3 C 0.1185(4) 0.5281(4) 0.3000(2)
H3 H 0.1490 0.6113 0.2581
H4 H 0.1895 0.5751 0.3597
C4 C -0.0989(4) 0.4745(4) 0.3081(2)
C5 C 0.1695(4) 0.2740(4) 0.3394(2)
H5 H 0.0586 0.2749 0.3720
C6 C 0.1333(4) 0.0993(4) 0.29861(19)
H6 H 0.2448 0.0981 0.2666
C7 C 0.1232(4) -0.0145(4) 0.3748(2)
H7 H 0.0123 -0.0181 0.4071
H8 H 0.1061 -0.1240 0.3473
C8 C 0.3065(4) 0.0431(4) 0.4430(2)
H9 H 0.2951 -0.0294 0.4910
H10 H 0.4168 0.0402 0.4117
C9 C 0.3373(4) 0.2154(4) 0.4855(2)
H11 H 0.4556 0.2521 0.5277
H12 H 0.2308 0.2167 0.5201
C10 C 0.3504(4) 0.3307(4) 0.4112(2)
H13 H 0.4641 0.3369 0.3806
H14 H 0.3648 0.4391 0.4396
C11 C -0.0192(4) -0.0864(3) 0.1606(2)
H15 H -0.1434 -0.1450 0.1258
H16 H 0.0250 -0.1638 0.1933
C12 C 0.1248(4) -0.0124(4) 0.09470(19)
C13 C -0.2276(4) -0.0219(4) 0.26895(19)
H17 H -0.2236 0.0491 0.3238
H18 H -0.2387 -0.1293 0.2873
C14 C -0.4065(4) -0.0332(4) 0.2035(2)
Cu1 Cu -0.5000 0.0000 0.0000
N1 N 0.1798(3) 0.3884(3) 0.26607(16)
N2 N -0.0429(3) 0.0412(3) 0.22829(16)
O1 O 0.2063(3) 0.4757(3) 0.09133(15)
O2 O 0.5234(3) 0.6060(3) 0.12058(15)
O3 O -0.2035(3) 0.3438(3) 0.25748(14)
O4 O -0.1610(3) 0.5573(3) 0.36095(18)
O5 O 0.1777(3) 0.1423(2) 0.09593(14)
O6 O 0.1812(3) -0.1042(3) 0.04312(14)
O7 O -0.3690(3) 0.0294(3) 0.12653(13)
O8 O -0.5660(3) -0.0957(3) 0.22701(15)
O9 O -0.1477(3) 0.5258(3) 0.10007(16)
H19 H -0.0579 0.6116 0.1268
H20 H -0.2562 0.5236 0.1198
O10 O -0.4950(3) 0.2273(2) 0.02057(14)
H21 H -0.3945 0.2825 0.0572
H22 H -0.5961 0.2320 0.0444
Bi1A Bi -0.935899(14) -0.265184(12) -0.135894(7)
C1A C -1.3740(4) -0.4493(4) -0.2341(2)
H1A H -1.4288 -0.3609 -0.2293
H2A H -1.4582 -0.5343 -0.2794
C2A C -1.3671(4) -0.5166(4) -0.1418(2)
C3A C -1.1185(4) -0.5281(4) -0.3000(2)
H3A H -1.1490 -0.6113 -0.2581
H4A H -1.1895 -0.5751 -0.3597
C4A C -0.9011(4) -0.4745(4) -0.3081(2)
C5A C -1.1695(4) -0.2740(4) -0.3394(2)
H5A H -1.0586 -0.2749 -0.3720
C6A C -1.1333(4) -0.0993(4) -0.29861(19)
H6A H -1.2448 -0.0981 -0.2666
C7A C -1.1232(4) 0.0145(4) -0.3748(2)
H7A H -1.0123 0.0181 -0.4071
H8A H -1.1061 0.1240 -0.3473
C8A C -1.3065(4) -0.0431(4) -0.4430(2)
H9A H -1.2951 0.0294 -0.4910
H10A H -1.4168 -0.0402 -0.4117
C9A C -1.3373(4) -0.2154(4) -0.4855(2)
H11A H -1.4556 -0.2521 -0.5277
H12A H -1.2308 -0.2167 -0.5201
C10A C -1.3504(4) -0.3307(4) -0.4112(2)
H13A H -1.4641 -0.3369 -0.3806
H14A H -1.3648 -0.4391 -0.4396
C11A C -0.9808(4) 0.0864(3) -0.1606(2)
H15A H -0.8566 0.1450 -0.1258
H16A H -1.0250 0.1638 -0.1933
C12A C -1.1248(4) 0.0124(4) -0.09470(19)
C13A C -0.7724(4) 0.0219(4) -0.26895(19)
H17A H -0.7764 -0.0491 -0.3238
H18A H -0.7613 0.1293 -0.2873
C14A C -0.5935(4) 0.0332(4) -0.2035(2)
N1A N -1.1798(3) -0.3884(3) -0.26607(16)
N2A N -0.9571(3) -0.0412(3) -0.22829(16)
O1A O -1.2063(3) -0.4757(3) -0.09133(15)
O2A O -1.5234(3) -0.6060(3) -0.12058(15)
O3A O -0.7965(3) -0.3438(3) -0.25748(14)
O4A O -0.8390(3) -0.5573(3) -0.36095(18)
O5A O -1.1777(3) -0.1423(2) -0.09593(14)
O6A O -1.1812(3) 0.1042(3) -0.04312(14)
O7A O -0.6310(3) -0.0294(3) -0.12653(13)
O8A O -0.4340(3) 0.0957(3) -0.22701(15)
O9A O -0.8523(3) -0.5258(3) -0.10007(16)
H19A H -0.9421 -0.6116 -0.1268
H20A H -0.7438 -0.5236 -0.1198
O10A O -0.5050(3) -0.2273(2) -0.02057(14)
H21A H -0.6055 -0.2825 -0.0572
H22A H -0.4039 -0.2320 -0.0444
Bi1_2 Bi -1.064101(14) 0.265184(12) 0.135894(7)
Bi1A_2 Bi 0.064101(14) -0.265184(12) -0.135894(7)
Cu1_2 Cu -1.5000 0.0000 0.0000
Cu1_3 Cu 0.5000 0.0000 0.0000
O6_2 O -0.8188(3) -0.1042(3) 0.04312(14)
O6A_2 O -0.1812(3) 0.1042(3) -0.04312(14)
O11 O -0.1491(8) 0.3200(8) 0.4858(4)
H23 H -0.1285 0.4098 0.4625
H24 H -0.0510 0.3514 0.5268
loop_
_geom_bond_atom_site_label_1
_geom_bond_atom_site_label_2
_geom_bond_site_symmetry_1
_geom_bond_site_symmetry_2
Bi1 N1 1_555 1_555
C1 H1 1_555 1_555
H2 C1 1_555 1_555
C2 C1 1_555 1_555
C3 H3 1_555 1_555
H4 C3 1_555 1_555
C4 C3 1_555 1_555
C5 H5 1_555 1_555
C6 C5 1_555 1_555
H6 C6 1_555 1_555
C7 C6 1_555 1_555
H7 C7 1_555 1_555
H8 C7 1_555 1_555
C8 C7 1_555 1_555
H9 C8 1_555 1_555
H10 C8 1_555 1_555
C9 C8 1_555 1_555
H11 C9 1_555 1_555
H12 C9 1_555 1_555
C10 C5 1_555 1_555
H13 C10 1_555 1_555
H14 C10 1_555 1_555
C11 H15 1_555 1_555
H16 C11 1_555 1_555
C12 C11 1_555 1_555
C13 H17 1_555 1_555
H18 C13 1_555 1_555
C14 C13 1_555 1_555
Cu1 O7 1_555 1_555
N1 C1 1_555 1_555
N2 Bi1 1_555 1_555
O1 Bi1 1_555 1_555
O2 C2 1_555 1_555
O3 Bi1 1_555 1_555
O4 C4 1_555 1_555
O5 Bi1 1_555 1_555
O6 C12 1_555 1_555
O7 Bi1 1_555 1_555
O8 C14 1_555 1_555
O9 Bi1 1_555 1_555
H19 O9 1_555 1_555
H20 O9 1_555 1_555
O10 Cu1 1_555 1_555
H21 O10 1_555 1_555
H22 O10 1_555 1_555
O11 H23 1_555 1_555
H24 O11 1_555 1_555
Bi1A N1A 1_555 1_555
C1A H1A 1_555 1_555
H2A C1A 1_555 1_555
C2A C1A 1_555 1_555
C3A H3A 1_555 1_555
H4A C3A 1_555 1_555
C4A C3A 1_555 1_555
C5A H5A 1_555 1_555
C6A C5A 1_555 1_555
H6A C6A 1_555 1_555
C7A C6A 1_555 1_555
H7A C7A 1_555 1_555
H8A C7A 1_555 1_555
C8A C7A 1_555 1_555
H9A C8A 1_555 1_555
H10A C8A 1_555 1_555
C9A C8A 1_555 1_555
H11A C9A 1_555 1_555
H12A C9A 1_555 1_555
C10A C5A 1_555 1_555
H13A C10A 1_555 1_555
H14A C10A 1_555 1_555
C11A H15A 1_555 1_555
H16A C11A 1_555 1_555
C12A C11A 1_555 1_555
C13A H17A 1_555 1_555
H18A C13A 1_555 1_555
C14A C13A 1_555 1_555
N1A C1A 1_555 1_555
N2A Bi1A 1_555 1_555
O1A Bi1A 1_555 1_555
O2A C2A 1_555 1_555
O3A Bi1A 1_555 1_555
O4A C4A 1_555 1_555
O5A Bi1A 1_555 1_555
O6A C12A 1_555 1_555
O7A Cu1 1_555 1_555
O8A C14A 1_555 1_555
O9A Bi1A 1_555 1_555
H19A O9A 1_555 1_555
H20A O9A 1_555 1_555
O10A Cu1 1_555 1_555
H21A O10A 1_555 1_555
H22A O10A 1_555 1_555
Bi1_2 O6A 1_555 1_555
Bi1A_2 O6 1_555 1_555
Cu1_2 O6A 1_555 1_555
Cu1_3 O6 1_555 1_555
O6_2 Cu1 1_555 1_555
O6A_2 Bi1 1_555 1_555
C2 O1 1_555 1_555
C3 N1 1_555 1_555
C4 O3 1_555 1_555
C5 N1 1_555 1_555
C6 N2 1_555 1_555
C9 C10 1_555 1_555
C11 N2 1_555 1_555
C12 O5 1_555 1_555
C13 N2 1_555 1_555
C14 O7 1_555 1_555
Cu1 O6A_2 1_555 1_555
Bi1A O7A 1_555 1_555
Bi1A O6_2 1_555 1_555
C2A O1A 1_555 1_555
C3A N1A 1_555 1_555
C4A O3A 1_555 1_555
C5A N1A 1_555 1_555
C6A N2A 1_555 1_555
C9A C10A 1_555 1_555
C11A N2A 1_555 1_555
C12A O5A 1_555 1_555
C13A N2A 1_555 1_555
C14A O7A 1_555 1_555

#END
