
#######################################################################
#
#                 Cambridge Crystallographic Data Centre
#                                CCDC 
#
#######################################################################
#
# If this CIF has been generated from an entry in the Cambridge 
# Structural Database, then it will include bibliographic, chemical, 
# crystal, experimental, refinement or atomic coordinate data resulting 
# from the CCDC's data processing and validation procedures.
#
#######################################################################

data_YOXJIG
_symmetry_cell_setting           monoclinic
_symmetry_space_group_name_H-M   'C 2/c'
_symmetry_Int_Tables_number      15
_space_group_name_Hall           '-C 2yn'
loop_
_symmetry_equiv_pos_site_id
_symmetry_equiv_pos_as_xyz
1 x,y,z
2 -x,y,1/2-z
3 1/2+x,1/2+y,z
4 1/2-x,1/2+y,1/2-z
5 -x,-y,-z
6 x,-y,1/2+z
7 1/2-x,1/2-y,-z
8 1/2+x,1/2-y,1/2+z
_cell_length_a                   23.619(5)
_cell_length_b                   11.280(2)
_cell_length_c                   8.8198(18)
_cell_angle_alpha                90
_cell_angle_beta                 107.55(3)
_cell_angle_gamma                90
_cell_volume                     2240.42
loop_
_atom_site_label
_atom_site_type_symbol
_atom_site_fract_x
_atom_site_fract_y
_atom_site_fract_z
Nd1 Nd 0.5000 0.04986(6) 0.2500
Cl1 Cl 0.5000 -0.1877(5) 0.2500
O1 O 0.4397(3) -0.0035(7) 0.4713(7)
O2 O 0.3936(2) 0.0726(5) 0.2370(6)
O3 O 0.5010(2) 0.2283(5) 0.4051(6)
H1 H 0.5010 0.2195 0.5009
H2 H 0.4823 0.2919 0.3701
N1 N 0.2575(4) 0.0263(9) 0.1828(12)
N2 N 0.2885(4) 0.0957(11) 0.2968(11)
N3 N 0.2705(4) 0.2047(9) 0.2870(12)
N4 N 0.2233(4) 0.2079(9) 0.1563(12)
N5 N 0.0817(4) 0.1036(9) -0.2621(11)
C1 C 0.3948(4) 0.0435(7) 0.3741(11)
C2 C 0.3388(5) 0.0534(11) 0.4250(14)
H3 H 0.3294 -0.0237 0.4598
H4 H 0.3461 0.1075 0.5143
C3 C 0.2169(4) 0.0994(9) 0.0946(12)
C4 C 0.1689(4) 0.0573(8) -0.0437(13)
C5 C 0.1615(5) -0.0587(9) -0.0804(17)
H5 H 0.1881 -0.1135 -0.0191
C6 C 0.1146(6) -0.0987(12) -0.2089(17)
H6 H 0.1094 -0.1781 -0.2382
C7 C 0.0767(5) -0.0099(12) -0.2891(15)
H7 H 0.0439 -0.0344 -0.3715
C8 C 0.1288(4) 0.1384(10) -0.1357(12)
H8 H 0.1340 0.2186 -0.1110
O1A O 0.5603(3) -0.0035(7) 0.0287(7)
O2A O 0.6064(2) 0.0726(5) 0.2630(6)
O3A O 0.4990(2) 0.2283(5) 0.0949(6)
H1A H 0.4990 0.2195 -0.0009
H2A H 0.5177 0.2919 0.1299
N1A N 0.7425(4) 0.0263(9) 0.3172(12)
N2A N 0.7115(4) 0.0957(11) 0.2032(11)
N3A N 0.7295(4) 0.2047(9) 0.2130(12)
N4A N 0.7767(4) 0.2079(9) 0.3437(12)
N5A N 0.9183(4) 0.1036(9) 0.7621(11)
C1A C 0.6052(4) 0.0435(7) 0.1259(11)
C2A C 0.6612(5) 0.0534(11) 0.0750(14)
H3A H 0.6706 -0.0237 0.0402
H4A H 0.6539 0.1075 -0.0143
C3A C 0.7831(4) 0.0994(9) 0.4054(12)
C4A C 0.8311(4) 0.0573(8) 0.5437(13)
C5A C 0.8385(5) -0.0587(9) 0.5804(17)
H5A H 0.8119 -0.1135 0.5191
C6A C 0.8854(6) -0.0987(12) 0.7089(17)
H6A H 0.8906 -0.1781 0.7382
C7A C 0.9233(5) -0.0099(12) 0.7891(15)
H7A H 0.9561 -0.0344 0.8715
C8A C 0.8712(4) 0.1384(10) 0.6357(12)
H8A H 0.8660 0.2186 0.6110
Nd1D Nd 0.5000 -0.04986(6) -0.2500
Nd1D_2 Nd 0.5000 -0.04986(6) 0.7500
O1D O 0.5603(3) 0.0035(7) 0.5287(7)
O1E O 0.4397(3) 0.0035(7) -0.0287(7)
loop_
_geom_bond_atom_site_label_1
_geom_bond_atom_site_label_2
_geom_bond_site_symmetry_1
_geom_bond_site_symmetry_2
Nd1 Cl1 1_555 1_555
O1 Nd1 1_555 1_555
O2 Nd1 1_555 1_555
O3 Nd1 1_555 1_555
H1 O3 1_555 1_555
H2 O3 1_555 1_555
N1 N2 1_555 1_555
N2 N3 1_555 1_555
N3 N4 1_555 1_555
N4 C3 1_555 1_555
N5 C7 1_555 1_555
C1 O1 1_555 1_555
C2 N2 1_555 1_555
H3 C2 1_555 1_555
H4 C2 1_555 1_555
C3 N1 1_555 1_555
C4 C3 1_555 1_555
C5 C4 1_555 1_555
H5 C5 1_555 1_555
C6 C5 1_555 1_555
H6 C6 1_555 1_555
C7 C6 1_555 1_555
H7 C7 1_555 1_555
C8 N5 1_555 1_555
H8 C8 1_555 1_555
O1A Nd1 1_555 1_555
O2A Nd1 1_555 1_555
O3A Nd1 1_555 1_555
H1A O3A 1_555 1_555
H2A O3A 1_555 1_555
N1A N2A 1_555 1_555
N2A N3A 1_555 1_555
N3A N4A 1_555 1_555
N4A C3A 1_555 1_555
N5A C7A 1_555 1_555
C1A O1A 1_555 1_555
C2A N2A 1_555 1_555
H3A C2A 1_555 1_555
H4A C2A 1_555 1_555
C3A N1A 1_555 1_555
C4A C3A 1_555 1_555
C5A C4A 1_555 1_555
H5A C5A 1_555 1_555
C6A C5A 1_555 1_555
H6A C6A 1_555 1_555
C7A C6A 1_555 1_555
H7A C7A 1_555 1_555
C8A N5A 1_555 1_555
H8A C8A 1_555 1_555
Nd1D O1A 1_555 1_555
Nd1D_2 O1 1_555 1_555
O1D Nd1 1_555 1_555
O1E Nd1 1_555 1_555
O2 C1 1_555 1_555
C1 C2 1_555 1_555
C4 C8 1_555 1_555
O2A C1A 1_555 1_555
C1A C2A 1_555 1_555
C4A C8A 1_555 1_555
Nd1D O1E 1_555 1_555
Nd1D_2 O1D 1_555 1_555

#END
