
#######################################################################
#
#                 Cambridge Crystallographic Data Centre
#                                CCDC 
#
#######################################################################
#
# If this CIF has been generated from an entry in the Cambridge 
# Structural Database, then it will include bibliographic, chemical, 
# crystal, experimental, refinement or atomic coordinate data resulting 
# from the CCDC's data processing and validation procedures.
#
#######################################################################

data_YOXXOA
_symmetry_cell_setting           monoclinic
_symmetry_space_group_name_H-M   'P 21/c'
_symmetry_Int_Tables_number      14
_space_group_name_Hall           '-P 2ybc'
loop_
_symmetry_equiv_pos_site_id
_symmetry_equiv_pos_as_xyz
1 x,y,z
2 -x,1/2+y,1/2-z
3 -x,-y,-z
4 x,1/2-y,1/2+z
_cell_length_a                   9.5106(18)
_cell_length_b                   9.4976(19)
_cell_length_c                   12.493(2)
_cell_angle_alpha                90
_cell_angle_beta                 96.947(6)
_cell_angle_gamma                90
_cell_volume                     1120.18
loop_
_atom_site_label
_atom_site_type_symbol
_atom_site_fract_x
_atom_site_fract_y
_atom_site_fract_z
Fe1 Fe 0.5000 0.0000 0.0000
Fe2 Fe 0.61949(7) 0.20750(6) -0.16598(5)
Fe3 Fe 0.67189(7) -0.18162(6) -0.15398(5)
O1 O 0.5497(3) 0.0047(3) -0.1593(2)
O2 O 0.6325(3) -0.2550(3) 0.1759(2)
O3 O 1.1638(3) -0.1574(3) 0.1604(3)
O4 O 0.6514(3) 0.4235(3) -0.1629(2)
O5 O 0.7559(4) 0.6236(3) -0.1103(3)
O6 O 0.5509(3) 0.2719(3) 0.1622(2)
O7 O 0.6290(3) 0.1916(3) 0.0131(2)
O8 O 0.6673(3) -0.1421(3) 0.0266(2)
O9 O 1.1388(3) 0.0763(3) 0.1538(3)
C1 C 0.7356(5) 0.4959(4) -0.0987(3)
C2 C 0.7198(6) 0.4105(5) 0.0887(4)
H1 H 0.7795 0.4119 0.1573
H2 H 0.6590 0.4927 0.0866
C3 C 0.6274(4) 0.2826(4) 0.0865(3)
C4 C 0.8154(5) 0.4263(5) -0.0004(3)
H3 H 0.8974 0.4828 0.0257
H4 H 0.8485 0.3343 -0.0200
C5 C 0.7147(4) -0.2022(4) 0.1144(3)
C6 C 0.8725(4) -0.2059(5) 0.1410(4)
H5 H 0.9137 -0.2600 0.0868
H6 H 0.8972 -0.2515 0.2102
C7 C 0.9316(5) -0.0574(5) 0.1451(4)
H7 H 0.8914 -0.0079 0.0807
H8 H 0.9003 -0.0094 0.2065
C8 C 1.0906(5) -0.0468(5) 0.1534(3)
Fe2B Fe 0.38051(7) -0.20750(6) 0.16598(5)
Fe3B Fe 0.32811(7) 0.18162(6) 0.15398(5)
O1B O 0.4503(3) -0.0047(3) 0.1593(2)
O2B O 0.3675(3) 0.2550(3) -0.1759(2)
O3B O -0.1638(3) 0.1574(3) -0.1604(3)
O4B O 0.3486(3) -0.4235(3) 0.1629(2)
O5B O 0.2441(4) -0.6236(3) 0.1103(3)
O6B O 0.4491(3) -0.2719(3) -0.1622(2)
O7B O 0.3710(3) -0.1916(3) -0.0131(2)
O8B O 0.3327(3) 0.1421(3) -0.0266(2)
O9B O -0.1388(3) -0.0763(3) -0.1538(3)
C1B C 0.2644(5) -0.4959(4) 0.0987(3)
C2B C 0.2802(6) -0.4105(5) -0.0887(4)
H1B H 0.2205 -0.4119 -0.1573
H2B H 0.3410 -0.4927 -0.0866
C3B C 0.3726(4) -0.2826(4) -0.0865(3)
C4B C 0.1846(5) -0.4263(5) 0.0004(3)
H3B H 0.1026 -0.4828 -0.0257
H4B H 0.1515 -0.3343 0.0200
C5B C 0.2853(4) 0.2022(4) -0.1144(3)
C6B C 0.1275(4) 0.2059(5) -0.1410(4)
H5B H 0.0863 0.2600 -0.0868
H6B H 0.1028 0.2515 -0.2102
C7B C 0.0684(5) 0.0574(5) -0.1451(4)
H7B H 0.1086 0.0079 -0.0807
H8B H 0.0997 0.0094 -0.2065
C8B C -0.0906(5) 0.0468(5) -0.1534(3)
Fe2_2 Fe -0.38051(7) 0.20750(6) -0.16598(5)
Fe2A Fe 0.38051(7) -0.29250(6) -0.33402(5)
Fe2B_2 Fe 1.38051(7) -0.20750(6) 0.16598(5)
Fe2C Fe 0.61949(7) 0.29250(6) 0.33402(5)
Fe3_2 Fe -0.32811(7) -0.18162(6) -0.15398(5)
Fe3_3 Fe 0.67189(7) 0.81838(6) -0.15398(5)
Fe3A Fe 0.32811(7) 0.31838(6) -0.34602(5)
Fe3B_2 Fe 0.32811(7) -0.81838(6) 0.15398(5)
Fe3B_3 Fe 1.32811(7) 0.18162(6) 0.15398(5)
Fe3C Fe 0.67189(7) -0.31838(6) 0.34602(5)
O2A O 0.3675(3) 0.2450(3) 0.3241(2)
O2C O 0.6325(3) -0.2450(3) -0.3241(2)
O3_2 O 0.1638(3) -0.1574(3) 0.1604(3)
O3B_2 O 0.8362(3) 0.1574(3) -0.1604(3)
O5_2 O 0.7559(4) -0.3764(3) -0.1103(3)
O5B_2 O 0.2441(4) 0.3764(3) 0.1103(3)
O6A O 0.4491(3) -0.2281(3) 0.3378(2)
O6C O 0.5509(3) 0.2281(3) -0.3378(2)
O9_2 O 0.1388(3) 0.0763(3) 0.1538(3)
O9B_2 O 0.8612(3) -0.0763(3) -0.1538(3)
loop_
_geom_bond_atom_site_label_1
_geom_bond_atom_site_label_2
_geom_bond_site_symmetry_1
_geom_bond_site_symmetry_2
Fe1 O1 1_555 1_555
Fe2 O1 1_555 1_555
Fe3 O1 1_555 1_555
O2 C5 1_555 1_555
O3 C8 1_555 1_555
O4 Fe2 1_555 1_555
O5 C1 1_555 1_555
O6 C3 1_555 1_555
O7 Fe1 1_555 1_555
O8 Fe1 1_555 1_555
O9 C8 1_555 1_555
C1 O4 1_555 1_555
C2 H1 1_555 1_555
H2 C2 1_555 1_555
C3 O7 1_555 1_555
C4 C1 1_555 1_555
H3 C4 1_555 1_555
H4 C4 1_555 1_555
C5 O8 1_555 1_555
C6 C5 1_555 1_555
H5 C6 1_555 1_555
H6 C6 1_555 1_555
C7 C6 1_555 1_555
H7 C7 1_555 1_555
H8 C7 1_555 1_555
C8 C7 1_555 1_555
Fe2B O2 1_555 1_555
Fe3B O6 1_555 1_555
O1B Fe1 1_555 1_555
O2B Fe2 1_555 1_555
O3B C8B 1_555 1_555
O4B Fe2B 1_555 1_555
O5B C1B 1_555 1_555
O6B Fe3 1_555 1_555
O7B Fe1 1_555 1_555
O8B Fe1 1_555 1_555
O9B C8B 1_555 1_555
C1B O4B 1_555 1_555
C2B H1B 1_555 1_555
H2B C2B 1_555 1_555
C3B O6B 1_555 1_555
C4B C1B 1_555 1_555
H3B C4B 1_555 1_555
H4B C4B 1_555 1_555
C5B O2B 1_555 1_555
C6B C5B 1_555 1_555
H5B C6B 1_555 1_555
H6B C6B 1_555 1_555
C7B C6B 1_555 1_555
H7B C7B 1_555 1_555
H8B C7B 1_555 1_555
C8B C7B 1_555 1_555
Fe2_2 O3B 1_555 1_555
Fe2A O6B 1_555 1_555
Fe2B_2 O3 1_555 1_555
Fe2C O6 1_555 1_555
Fe3_2 O9B 1_555 1_555
Fe3_3 O5 1_555 1_555
Fe3A O2B 1_555 1_555
Fe3B_2 O5B 1_555 1_555
Fe3B_3 O9 1_555 1_555
Fe3C O2 1_555 1_555
O2A Fe3B 1_555 1_555
O2C Fe3 1_555 1_555
O3_2 Fe2B 1_555 1_555
O3B_2 Fe2 1_555 1_555
O5_2 Fe3 1_555 1_555
O5B_2 Fe3B 1_555 1_555
O6A Fe2B 1_555 1_555
O6C Fe2 1_555 1_555
O9_2 Fe3B 1_555 1_555
O9B_2 Fe3 1_555 1_555
Fe2 O7 1_555 1_555
Fe3 O8 1_555 1_555
C2 C3 1_555 1_555
C2 C4 1_555 1_555
Fe2B O1B 1_555 1_555
Fe2B O7B 1_555 1_555
Fe3B O1B 1_555 1_555
Fe3B O8B 1_555 1_555
O7B C3B 1_555 1_555
O8B C5B 1_555 1_555
C2B C3B 1_555 1_555
C2B C4B 1_555 1_555
Fe2A O2C 1_555 1_555
Fe2C O2A 1_555 1_555
Fe3A O6C 1_555 1_555
Fe3C O6A 1_555 1_555

#END
