
#######################################################################
#
#                 Cambridge Crystallographic Data Centre
#                                CCDC 
#
#######################################################################
#
# If this CIF has been generated from an entry in the Cambridge 
# Structural Database, then it will include bibliographic, chemical, 
# crystal, experimental, refinement or atomic coordinate data resulting 
# from the CCDC's data processing and validation procedures.
#
#######################################################################

data_YOYCOF
_symmetry_cell_setting           triclinic
_symmetry_space_group_name_H-M   'P -1'
_symmetry_Int_Tables_number      2
_space_group_name_Hall           '-P 1'
loop_
_symmetry_equiv_pos_site_id
_symmetry_equiv_pos_as_xyz
1 x,y,z
2 -x,-y,-z
_cell_length_a                   9.522(3)
_cell_length_b                   10.422(4)
_cell_length_c                   10.840(4)
_cell_angle_alpha                78.983(6)
_cell_angle_beta                 83.425(7)
_cell_angle_gamma                71.637(6)
_cell_volume                     1000.45
loop_
_atom_site_label
_atom_site_type_symbol
_atom_site_fract_x
_atom_site_fract_y
_atom_site_fract_z
Ni1 Ni 0.24758(4) 0.93567(4) 0.50498(3)
K1 K 0.20469(7) 1.54413(7) 0.48983(6)
O1 O 0.0882(2) 1.3537(2) 0.4617(2)
O2 O 0.5737(2) 0.6224(2) 0.38533(19)
O3 O 0.1404(2) 0.9409(2) 0.36960(19)
N1 N 0.3385(3) 0.9223(2) 0.6602(2)
N2 N 0.1461(3) 1.1213(3) 0.5272(2)
N3 N 0.3776(3) 0.7533(3) 0.4974(2)
N4 N 0.0903(3) 1.2144(3) 0.3223(3)
N5 N 0.3481(3) 0.7247(3) 0.2971(2)
C1 C 0.2170(3) 1.0072(3) 0.7355(3)
H1 H 0.2546 1.0167 0.8137
H2 H 0.1368 0.9639 0.7588
C2 C 0.1585(3) 1.1484(3) 0.6535(3)
H3 H 0.0605 1.1998 0.6882
H4 H 0.2279 1.2027 0.6499
C3 C 0.1088(3) 1.2351(3) 0.4391(3)
C4 C 0.0771(3) 1.3132(3) 0.2051(3)
C5 C 0.3808(4) 0.7736(3) 0.7122(3)
H5 H 0.2912 0.7446 0.7403
H6 H 0.4425 0.7535 0.7852
C6 C 0.4674(3) 0.6989(3) 0.6075(3)
H7 H 0.5650 0.7157 0.5891
H8 H 0.4838 0.5990 0.6315
C7 C 0.4427(3) 0.6982(3) 0.3926(3)
C8 C 0.3962(3) 0.7279(3) 0.1620(3)
C9 C 0.0646(5) 1.2375(4) 0.1015(3)
H9 H -0.0257 1.2094 0.1182
H10 H 0.1512 1.1562 0.0997
H11 H 0.0603 1.2982 0.0200
C10 C -0.0606(4) 1.4372(4) 0.2119(3)
H12 H -0.1489 1.4061 0.2313
H13 H -0.0695 1.4988 0.1308
H14 H -0.0517 1.4859 0.2781
C11 C 0.2142(4) 1.3624(4) 0.1748(3)
H15 H 0.2221 1.4125 0.2403
H16 H 0.2056 1.4230 0.0931
H17 H 0.3029 1.2832 0.1715
C12 C 0.4795(5) 0.8340(4) 0.1175(3)
H18 H 0.5731 0.8046 0.1592
H19 H 0.4186 0.9229 0.1388
H20 H 0.4999 0.8424 0.0261
C13 C 0.4923(4) 0.5888(3) 0.1336(3)
H21 H 0.5856 0.5623 0.1753
H22 H 0.5133 0.5937 0.0424
H23 H 0.4400 0.5206 0.1646
C14 C 0.2540(4) 0.7711(4) 0.0921(3)
H24 H 0.2018 0.7021 0.1182
H25 H 0.2787 0.7793 0.0012
H26 H 0.1902 0.8597 0.1119
C15 C 0.4702(3) 0.9706(4) 0.6526(3)
H27 H 0.5012 0.9623 0.7377
H28 H 0.4455 1.0667 0.6118
H29 H 0.5512 0.9147 0.6033
H30 H 0.109(4) 1.134(4) 0.316(3)
H31 H 0.061(4) 0.932(3) 0.398(3)
H32 H 0.272(5) 0.778(5) 0.301(4)
K1A K -0.20469(7) 1.45587(7) 0.51017(6)
K1A_2 K 0.79531(7) 0.45587(7) 0.51017(6)
O1A O -0.0882(2) 1.6463(2) 0.5383(2)
O2A O 0.4263(2) 1.3776(2) 0.61467(19)
loop_
_geom_bond_atom_site_label_1
_geom_bond_atom_site_label_2
_geom_bond_site_symmetry_1
_geom_bond_site_symmetry_2
Ni1 O3 1_555 1_555
K1 O1 1_555 1_555
O1 C3 1_555 1_555
O2 C7 1_555 1_555
O3 H31 1_555 1_555
N1 Ni1 1_555 1_555
N2 Ni1 1_555 1_555
N3 Ni1 1_555 1_555
N4 C3 1_555 1_555
N5 C7 1_555 1_555
C1 N1 1_555 1_555
H1 C1 1_555 1_555
H2 C1 1_555 1_555
C2 N2 1_555 1_555
H3 C2 1_555 1_555
H4 C2 1_555 1_555
C3 N2 1_555 1_555
C4 N4 1_555 1_555
C5 N1 1_555 1_555
H5 C5 1_555 1_555
H6 C5 1_555 1_555
C6 N3 1_555 1_555
H7 C6 1_555 1_555
H8 C6 1_555 1_555
C7 N3 1_555 1_555
C8 N5 1_555 1_555
C9 C4 1_555 1_555
H9 C9 1_555 1_555
H10 C9 1_555 1_555
H11 C9 1_555 1_555
C10 C4 1_555 1_555
H12 C10 1_555 1_555
H13 C10 1_555 1_555
H14 C10 1_555 1_555
C11 C4 1_555 1_555
H15 C11 1_555 1_555
H16 C11 1_555 1_555
H17 C11 1_555 1_555
C12 C8 1_555 1_555
H18 C12 1_555 1_555
H19 C12 1_555 1_555
H20 C12 1_555 1_555
C13 C8 1_555 1_555
H21 C13 1_555 1_555
H22 C13 1_555 1_555
H23 C13 1_555 1_555
C14 C8 1_555 1_555
H24 C14 1_555 1_555
H25 C14 1_555 1_555
H26 C14 1_555 1_555
C15 N1 1_555 1_555
H27 C15 1_555 1_555
H28 C15 1_555 1_555
H29 C15 1_555 1_555
H30 N4 1_555 1_555
H32 N5 1_555 1_555
K1A O1 1_555 1_555
K1A_2 O2 1_555 1_555
O1A K1 1_555 1_555
O2A K1 1_555 1_555
C1 C2 1_555 1_555
C5 C6 1_555 1_555
K1A O1A 1_555 1_555

#END
