
#######################################################################
#
#                 Cambridge Crystallographic Data Centre
#                                CCDC 
#
#######################################################################
#
# If this CIF has been generated from an entry in the Cambridge 
# Structural Database, then it will include bibliographic, chemical, 
# crystal, experimental, refinement or atomic coordinate data resulting 
# from the CCDC's data processing and validation procedures.
#
#######################################################################

data_YOYCAR
_symmetry_cell_setting           triclinic
_symmetry_space_group_name_H-M   'P -1'
_symmetry_Int_Tables_number      2
_space_group_name_Hall           '-P 1'
loop_
_symmetry_equiv_pos_site_id
_symmetry_equiv_pos_as_xyz
1 x,y,z
2 -x,-y,-z
_cell_length_a                   9.6492(9)
_cell_length_b                   9.8057(9)
_cell_length_c                   10.2370(9)
_cell_angle_alpha                86.824(2)
_cell_angle_beta                 88.467(2)
_cell_angle_gamma                74.471(2)
_cell_volume                     931.732
loop_
_atom_site_label
_atom_site_type_symbol
_atom_site_fract_x
_atom_site_fract_y
_atom_site_fract_z
Ni1 Ni 0.23610(2) 0.08396(2) 0.482373(19)
K1 K -0.30732(4) 0.56826(4) 0.49083(4)
O1 O 0.34285(15) 0.10827(14) 0.62327(13)
O2 O -0.08900(13) 0.40775(13) 0.61591(12)
O3 O 0.40460(14) -0.34134(13) 0.51400(14)
N1 N 0.14244(15) 0.06866(15) 0.32190(13)
N2 N 0.09276(15) 0.26043(15) 0.49905(13)
N3 N 0.34987(15) -0.10385(15) 0.45118(14)
N4 N 0.12912(18) 0.31477(17) 0.71062(14)
N5 N 0.3916(2) -0.18045(18) 0.66802(16)
C1 C 0.0753(2) 0.2165(2) 0.27381(18)
C2 C -0.0065(2) 0.29425(19) 0.38866(17)
C3 C 0.03644(18) 0.32916(17) 0.60787(16)
C4 C 0.0780(2) 0.3653(2) 0.83913(17)
C5 C -0.0182(3) 0.2816(3) 0.9066(2)
C6 C 0.2082(3) 0.3609(3) 0.9214(2)
C7 C 0.2618(2) -0.0091(2) 0.23857(18)
C8 C 0.3386(2) -0.1450(2) 0.31632(18)
C9 C 0.38106(18) -0.21415(19) 0.54182(18)
C10 C 0.3856(2) -0.2776(2) 0.7795(2)
C11 C 0.3486(3) -0.1920(3) 0.9009(2)
C12 C 0.5244(3) -0.3952(3) 0.7980(3)
C13 C 0.0295(2) -0.0095(2) 0.3347(2)
H1 H 0.417(3) 0.094(3) 0.595(2)
H2 H 0.201(2) 0.251(2) 0.709(2)
H3 H 0.373(3) -0.091(3) 0.680(2)
H4 H 0.007(3) 0.215(2) 0.196(2)
H5 H 0.171(3) 0.244(2) 0.241(2)
H6 H -0.030(2) 0.398(2) 0.363(2)
H7 H -0.091(2) 0.269(2) 0.4100(18)
H8 H 0.022(2) 0.460(2) 0.8290(19)
H9 H -0.096(3) 0.281(3) 0.851(2)
H10 H -0.051(3) 0.320(3) 0.985(3)
H11 H 0.037(3) 0.186(3) 0.926(2)
H12 H 0.264(3) 0.418(3) 0.878(3)
H13 H 0.266(3) 0.266(3) 0.932(2)
H14 H 0.181(3) 0.392(3) 1.010(2)
H15 H 0.330(3) 0.065(2) 0.222(2)
H16 H 0.221(2) -0.028(2) 0.150(2)
H17 H 0.286(2) -0.215(2) 0.314(2)
H18 H 0.436(2) -0.184(2) 0.276(2)
H19 H 0.304(3) -0.326(3) 0.770(2)
H20 H 0.264(3) -0.116(3) 0.886(3)
H21 H 0.423(3) -0.147(3) 0.912(3)
H22 H 0.340(3) -0.259(3) 0.980(3)
H23 H 0.543(3) -0.457(3) 0.731(3)
H24 H 0.519(3) -0.455(3) 0.882(3)
H25 H 0.597(3) -0.344(3) 0.810(3)
H26 H -0.009(3) -0.023(3) 0.245(2)
H27 H -0.053(2) 0.046(2) 0.392(2)
H28 H 0.072(3) -0.112(3) 0.373(2)
K1A K 0.30732(4) -0.56826(4) 0.50917(4)
K1_2 K 0.69268(4) -0.43174(4) 0.49083(4)
K1A_2 K 0.30732(4) 0.43174(4) 0.50917(4)
O3A O -0.40460(14) 0.34134(13) 0.48600(14)
O3_2 O -0.59540(14) 0.65866(13) 0.51400(14)
N2A N -0.09276(15) 0.73957(15) 0.50095(13)
loop_
_geom_bond_atom_site_label_1
_geom_bond_atom_site_label_2
_geom_bond_site_symmetry_1
_geom_bond_site_symmetry_2
Ni1 O1 1_555 1_555
K1 O2 1_555 1_555
O1 H1 1_555 1_555
O2 C3 1_555 1_555
O3 C9 1_555 1_555
N1 Ni1 1_555 1_555
N2 Ni1 1_555 1_555
N3 Ni1 1_555 1_555
N4 C3 1_555 1_555
N5 C9 1_555 1_555
C1 N1 1_555 1_555
C2 N2 1_555 1_555
C3 N2 1_555 1_555
C4 N4 1_555 1_555
C5 C4 1_555 1_555
C6 C4 1_555 1_555
C7 N1 1_555 1_555
C8 N3 1_555 1_555
C9 N3 1_555 1_555
C10 N5 1_555 1_555
C11 C10 1_555 1_555
C12 C10 1_555 1_555
C13 N1 1_555 1_555
H2 N4 1_555 1_555
H3 N5 1_555 1_555
H4 C1 1_555 1_555
H5 C1 1_555 1_555
H6 C2 1_555 1_555
H7 C2 1_555 1_555
H8 C4 1_555 1_555
H9 C5 1_555 1_555
H10 C5 1_555 1_555
H11 C5 1_555 1_555
H12 C6 1_555 1_555
H13 C6 1_555 1_555
H14 C6 1_555 1_555
H15 C7 1_555 1_555
H16 C7 1_555 1_555
H17 C8 1_555 1_555
H18 C8 1_555 1_555
H19 C10 1_555 1_555
H20 C11 1_555 1_555
H21 C11 1_555 1_555
H22 C11 1_555 1_555
H23 C12 1_555 1_555
H24 C12 1_555 1_555
H25 C12 1_555 1_555
H26 C13 1_555 1_555
H27 C13 1_555 1_555
H28 C13 1_555 1_555
K1A O3 1_555 1_555
K1_2 O3 1_555 1_555
K1A_2 N2 1_555 1_555
O3A K1 1_555 1_555
O3_2 K1 1_555 1_555
N2A K1 1_555 1_555
C1 C2 1_555 1_555
C7 C8 1_555 1_555

#END
