
#######################################################################
#
#                 Cambridge Crystallographic Data Centre
#                                CCDC 
#
#######################################################################
#
# If this CIF has been generated from an entry in the Cambridge 
# Structural Database, then it will include bibliographic, chemical, 
# crystal, experimental, refinement or atomic coordinate data resulting 
# from the CCDC's data processing and validation procedures.
#
#######################################################################

data_YOYFOI
_symmetry_cell_setting           monoclinic
_symmetry_space_group_name_H-M   'P 21/c'
_symmetry_Int_Tables_number      14
_space_group_name_Hall           '-P 2ybc'
loop_
_symmetry_equiv_pos_site_id
_symmetry_equiv_pos_as_xyz
1 x,y,z
2 -x,1/2+y,1/2-z
3 -x,-y,-z
4 x,1/2-y,1/2+z
_cell_length_a                   9.442(3)
_cell_length_b                   10.672(6)
_cell_length_c                   13.975(8)
_cell_angle_alpha                90
_cell_angle_beta                 96.764(15)
_cell_angle_gamma                90
_cell_volume                     1398.39
loop_
_atom_site_label
_atom_site_type_symbol
_atom_site_fract_x
_atom_site_fract_y
_atom_site_fract_z
Cu1 Cu 0.5000 0.0000 0.0000
C1 C 0.78862(15) 0.06025(14) -0.06427(11)
C2 C 0.90067(16) 0.14621(14) -0.05140(11)
C3 C 1.02159(17) 0.13511(17) -0.09854(13)
H1 H 1.0962 0.1923 -0.0887
C4 C 1.02542(19) 0.03529(18) -0.16056(14)
H2 H 1.1047 0.0246 -0.1934
C5 C 0.91286(19) -0.05046(18) -0.17525(13)
H3 H 0.9183 -0.1161 -0.2185
C6 C 0.79395(18) -0.03992(16) -0.12711(12)
H4 H 0.7200 -0.0978 -0.1364
C7 C 0.94893(19) 0.34104(15) 0.05056(13)
H5 H 1.0443 0.3121 0.0733
H6 H 0.9084 0.3762 0.1053
C8 C 0.95948(18) 0.44360(15) -0.02318(13)
H7 H 0.8645 0.4693 -0.0499
H8 H 1.0085 0.4118 -0.0754
C9 C 0.65795(18) 0.26709(17) 0.11066(13)
H9 H 0.5593 0.2397 0.1048
H10 H 0.6584 0.3557 0.0952
C10 C 0.7237(2) 0.2492(2) 0.21466(14)
H11 H 0.6703 0.2965 0.2566
H12 H 0.8207 0.2780 0.2216
H13 H 0.7214 0.1620 0.2312
C11 C 0.3393(2) 0.2090(2) -0.22996(14)
H14 H 0.3007 0.2781 -0.1975
H15 H 0.2649 0.1705 -0.2728
H16 H 0.4127 0.2388 -0.2662
C12 C 0.40128(17) 0.11438(16) -0.15690(12)
C13 C 0.73315(16) 0.19764(14) 0.03935(11)
N1 N 0.68526(13) 0.09440(12) -0.00630(9)
N2 N 0.86229(14) 0.23285(12) 0.01432(10)
O1 O 0.39519(12) 0.13967(11) -0.06825(8)
O2 O 0.45717(15) 0.01698(12) -0.18264(10)
Cu1_2 Cu 1.5000 1.0000 0.0000
C1B C 1.21138(15) 0.93975(14) 0.06427(11)
C2B C 1.09933(16) 0.85379(14) 0.05140(11)
C3B C 0.97841(17) 0.86489(17) 0.09854(13)
H1B H 0.9038 0.8077 0.0887
C4B C 0.97458(19) 0.96471(18) 0.16056(14)
H2B H 0.8953 0.9754 0.1934
C5B C 1.08714(19) 1.05046(18) 0.17525(13)
H3B H 1.0817 1.1161 0.2185
C6B C 1.20605(18) 1.03992(16) 0.12711(12)
H4B H 1.2800 1.0978 0.1364
C7B C 1.05107(19) 0.65896(15) -0.05056(13)
H5B H 0.9557 0.6879 -0.0733
H6B H 1.0916 0.6238 -0.1053
C8B C 1.04052(18) 0.55640(15) 0.02318(13)
H7B H 1.1355 0.5307 0.0499
H8B H 0.9915 0.5882 0.0754
C9B C 1.34205(18) 0.73291(17) -0.11066(13)
H9B H 1.4407 0.7603 -0.1048
H10B H 1.3416 0.6443 -0.0952
C10B C 1.2763(2) 0.7508(2) -0.21466(14)
H11B H 1.3297 0.7035 -0.2566
H12B H 1.1793 0.7220 -0.2216
H13B H 1.2786 0.8380 -0.2312
C11B C 0.6607(2) -0.2090(2) 0.22996(14)
H14B H 0.6993 -0.2781 0.1975
H15B H 0.7351 -0.1705 0.2728
H16B H 0.5873 -0.2388 0.2662
C12B C 0.59872(17) -0.11438(16) 0.15690(12)
C13B C 1.26685(16) 0.80236(14) -0.03935(11)
N1B N 1.31474(13) 0.90560(12) 0.00630(9)
N1B_2 N 0.31474(13) -0.09440(12) 0.00630(9)
N2B N 1.13771(14) 0.76715(12) -0.01432(10)
O1B O 0.60481(12) -0.13967(11) 0.06825(8)
O2B O 0.54283(15) -0.01698(12) 0.18264(10)
O3 O 0.3204(2) 0.38701(18) -0.03406(15)
H17 H 0.345(4) 0.310(4) -0.034(2)
H18 H 0.347(4) 0.419(4) 0.016(3)
O4 O 0.4338(2) 0.5319(2) 0.11969(14)
H19 H 0.445(4) 0.513(3) 0.176(3)
H20 H 0.513(4) 0.547(4) 0.107(3)
loop_
_geom_bond_atom_site_label_1
_geom_bond_atom_site_label_2
_geom_bond_site_symmetry_1
_geom_bond_site_symmetry_2
Cu1 N1 1_555 1_555
C1 C2 1_555 1_555
C2 C3 1_555 1_555
C3 H1 1_555 1_555
C4 C3 1_555 1_555
H2 C4 1_555 1_555
C5 C4 1_555 1_555
H3 C5 1_555 1_555
C6 C1 1_555 1_555
H4 C6 1_555 1_555
C7 H5 1_555 1_555
H6 C7 1_555 1_555
C8 C7 1_555 1_555
H7 C8 1_555 1_555
H8 C8 1_555 1_555
C9 H9 1_555 1_555
H10 C9 1_555 1_555
C10 C9 1_555 1_555
H11 C10 1_555 1_555
H12 C10 1_555 1_555
H13 C10 1_555 1_555
C11 H14 1_555 1_555
H15 C11 1_555 1_555
H16 C11 1_555 1_555
C12 C11 1_555 1_555
C13 C9 1_555 1_555
N1 C1 1_555 1_555
N2 C2 1_555 1_555
O1 Cu1 1_555 1_555
O2 Cu1 1_555 1_555
O3 H17 1_555 1_555
O4 H19 1_555 1_555
H18 O3 1_555 1_555
H20 O4 1_555 1_555
Cu1_2 N1B 1_555 1_555
C1B C2B 1_555 1_555
C2B C3B 1_555 1_555
C3B H1B 1_555 1_555
C4B C3B 1_555 1_555
H2B C4B 1_555 1_555
C5B C4B 1_555 1_555
H3B C5B 1_555 1_555
C6B C1B 1_555 1_555
H4B C6B 1_555 1_555
C7B H5B 1_555 1_555
H6B C7B 1_555 1_555
C8B C8 1_555 1_555
H7B C8B 1_555 1_555
H8B C8B 1_555 1_555
C9B H9B 1_555 1_555
H10B C9B 1_555 1_555
C10B C9B 1_555 1_555
H11B C10B 1_555 1_555
H12B C10B 1_555 1_555
H13B C10B 1_555 1_555
C11B H14B 1_555 1_555
H15B C11B 1_555 1_555
H16B C11B 1_555 1_555
C12B C11B 1_555 1_555
C13B C9B 1_555 1_555
N1B C1B 1_555 1_555
N1B_2 Cu1 1_555 1_555
N2B C2B 1_555 1_555
O1B Cu1 1_555 1_555
O2B Cu1 1_555 1_555
C5 C6 1_555 1_555
C7 N2 1_555 1_555
C12 O1 1_555 1_555
C12 O2 1_555 1_555
C13 N1 1_555 1_555
C13 N2 1_555 1_555
C5B C6B 1_555 1_555
C7B C8B 1_555 1_555
C7B N2B 1_555 1_555
C12B O1B 1_555 1_555
C12B O2B 1_555 1_555
C13B N1B 1_555 1_555
C13B N2B 1_555 1_555

#END
