
#######################################################################
#
#                 Cambridge Crystallographic Data Centre
#                                CCDC 
#
#######################################################################
#
# If this CIF has been generated from an entry in the Cambridge 
# Structural Database, then it will include bibliographic, chemical, 
# crystal, experimental, refinement or atomic coordinate data resulting 
# from the CCDC's data processing and validation procedures.
#
#######################################################################

data_YOYGAV
_symmetry_cell_setting           orthorhombic
_symmetry_space_group_name_H-M   'P n m a'
_symmetry_Int_Tables_number      62
_space_group_name_Hall           '-P 2ac 2n'
loop_
_symmetry_equiv_pos_site_id
_symmetry_equiv_pos_as_xyz
1 x,y,z
2 1/2-x,-y,1/2+z
3 1/2+x,1/2-y,1/2-z
4 -x,1/2+y,-z
5 -x,-y,-z
6 1/2+x,y,1/2-z
7 1/2-x,1/2+y,1/2+z
8 x,1/2-y,z
_cell_length_a                   10.5853(12)
_cell_length_b                   16.1885(19)
_cell_length_c                   15.5266(18)
_cell_angle_alpha                90
_cell_angle_beta                 90
_cell_angle_gamma                90
_cell_volume                     2660.64
loop_
_atom_site_label
_atom_site_type_symbol
_atom_site_fract_x
_atom_site_fract_y
_atom_site_fract_z
Ag1 Ag 0.98170(3) 0.2500 0.084526(19)
C1 C 1.0484(2) 0.39917(16) -0.05358(17)
C2 C 0.9591(3) 0.37915(19) -0.1163(2)
H1 H 0.8978 0.3390 -0.1066
C3 C 0.9654(3) 0.4211(2) -0.1930(2)
H2 H 0.9075 0.4088 -0.2361
C4 C 1.0566(3) 0.4820(2) -0.2080(2)
H3 H 1.0577 0.5091 -0.2608
C5 C 1.1449(3) 0.5029(2) -0.14649(19)
H4 H 1.2053 0.5435 -0.1563
C6 C 1.1389(2) 0.46011(16) -0.06926(17)
C7 C 1.1617(2) 0.40860(17) 0.06136(17)
C8 C 1.2134(3) 0.3952(2) 0.14903(18)
H5 H 1.2834 0.4318 0.1584
H6 H 1.2413 0.3390 0.1545
H7 H 1.1489 0.4061 0.1910
C9 C 1.3208(2) 0.51756(17) 0.0184(2)
H8 H 1.3261 0.5335 0.0785
H9 H 1.3119 0.5675 -0.0156
C10 C 1.4421(2) 0.47327(18) -0.0075(2)
H10 H 1.4501 0.4227 0.0257
H11 H 1.4376 0.4584 -0.0679
C11 C 0.5681(4) 0.2500 -0.0853(2)
H12 H 0.6538 0.2500 -0.0984
C12 C 0.5292(3) 0.2500 -0.0006(2)
C13 C 0.4006(3) 0.2500 0.0183(2)
H13 H 0.3737 0.2500 0.0753
C14 C 0.3133(3) 0.2500 -0.0475(3)
H14 H 0.2276 0.2500 -0.0342
C15 C 0.3507(4) 0.2500 -0.1330(3)
C16 C 0.4791(4) 0.2500 -0.1510(3)
H15 H 0.5060 0.2500 -0.2080
C17 C 0.2538(4) 0.2500 -0.2043(3)
H16 H 0.1706 0.2500 -0.1798
H17 H 0.2647 0.2016 -0.2392
N1 N 1.0650(2) 0.36773(13) 0.02908(14)
N2 N 1.20940(19) 0.46525(14) 0.00573(15)
O1 O 0.7613(3) 0.2500 0.0399(3)
O2 O 0.6186(3) 0.32339(16) 0.13377(16)
S1 S 0.64131(10) 0.2500 0.08414(6)
O3 O 0.9210(5) 0.2500 0.2252(3)
H18 H 0.955(6) 0.290(3) 0.266(4)
Ag1C Ag 2.01830(3) 0.7500 -0.084526(19)
C1D C 1.9516(2) 0.60083(16) 0.05358(17)
C2D C 2.0409(3) 0.62085(19) 0.1163(2)
H1D H 2.1022 0.6610 0.1066
C3D C 2.0346(3) 0.5789(2) 0.1930(2)
H2D H 2.0925 0.5912 0.2361
C4D C 1.9434(3) 0.5180(2) 0.2080(2)
H3D H 1.9423 0.4909 0.2608
C5D C 1.8551(3) 0.4971(2) 0.14649(19)
H4D H 1.7947 0.4565 0.1563
C6D C 1.8611(2) 0.53989(16) 0.06926(17)
C7D C 1.8383(2) 0.59140(17) -0.06136(17)
C8D C 1.7866(3) 0.6048(2) -0.14903(18)
H5D H 1.7166 0.5682 -0.1584
H6D H 1.7587 0.6610 -0.1545
H7D H 1.8511 0.5939 -0.1910
C9D C 1.6792(2) 0.48244(17) -0.0184(2)
H8D H 1.6739 0.4665 -0.0785
H9D H 1.6881 0.4325 0.0156
C10D C 1.5579(2) 0.52673(18) 0.0075(2)
H10D H 1.5499 0.5773 -0.0257
H11D H 1.5624 0.5416 0.0679
H17G H 0.2647 0.2984 -0.2392
N1D N 1.9350(2) 0.63227(13) -0.02908(14)
N1G N 1.0650(2) 0.13227(13) 0.02908(14)
N2D N 1.79060(19) 0.53475(14) -0.00573(15)
O2G O 0.6186(3) 0.17661(16) 0.13377(16)
H18G H 0.955(6) 0.210(3) 0.266(4)
loop_
_geom_bond_atom_site_label_1
_geom_bond_atom_site_label_2
_geom_bond_site_symmetry_1
_geom_bond_site_symmetry_2
Ag1 N1 1_555 1_555
C1 C2 1_555 1_555
C2 H1 1_555 1_555
C3 C2 1_555 1_555
H2 C3 1_555 1_555
C4 C3 1_555 1_555
H3 C4 1_555 1_555
C5 C4 1_555 1_555
H4 C5 1_555 1_555
C6 C1 1_555 1_555
C7 C8 1_555 1_555
C8 H5 1_555 1_555
H6 C8 1_555 1_555
H7 C8 1_555 1_555
C9 H8 1_555 1_555
H9 C9 1_555 1_555
C10 C9 1_555 1_555
H10 C10 1_555 1_555
H11 C10 1_555 1_555
C11 H12 1_555 1_555
C12 C11 1_555 1_555
C13 C12 1_555 1_555
H13 C13 1_555 1_555
C14 C13 1_555 1_555
H14 C14 1_555 1_555
C15 C14 1_555 1_555
C16 C11 1_555 1_555
H15 C16 1_555 1_555
C17 C15 1_555 1_555
H16 C17 1_555 1_555
H17 C17 1_555 1_555
N1 C1 1_555 1_555
N2 C6 1_555 1_555
O1 Ag1 1_555 1_555
O2 S1 1_555 1_555
S1 C12 1_555 1_555
O3 Ag1 1_555 1_555
H18 O3 1_555 1_555
Ag1C N1D 1_555 1_555
C1D C2D 1_555 1_555
C2D H1D 1_555 1_555
C3D C2D 1_555 1_555
H2D C3D 1_555 1_555
C4D C3D 1_555 1_555
H3D C4D 1_555 1_555
C5D C4D 1_555 1_555
H4D C5D 1_555 1_555
C6D C1D 1_555 1_555
C7D C8D 1_555 1_555
C8D H5D 1_555 1_555
H6D C8D 1_555 1_555
H7D C8D 1_555 1_555
C9D H8D 1_555 1_555
H9D C9D 1_555 1_555
C10D C10 1_555 1_555
H10D C10D 1_555 1_555
H11D C10D 1_555 1_555
H17G C17 1_555 1_555
N1D C1D 1_555 1_555
N1G Ag1 1_555 1_555
N2D C6D 1_555 1_555
O2G S1 1_555 1_555
H18G O3 1_555 1_555
C5 C6 1_555 1_555
C7 N1 1_555 1_555
C7 N2 1_555 1_555
C9 N2 1_555 1_555
C15 C16 1_555 1_555
O1 S1 1_555 1_555
C5D C6D 1_555 1_555
C7D N1D 1_555 1_555
C7D N2D 1_555 1_555
C9D C10D 1_555 1_555
C9D N2D 1_555 1_555

#END
