
#######################################################################
#
#                 Cambridge Crystallographic Data Centre
#                                CCDC 
#
#######################################################################
#
# If this CIF has been generated from an entry in the Cambridge 
# Structural Database, then it will include bibliographic, chemical, 
# crystal, experimental, refinement or atomic coordinate data resulting 
# from the CCDC's data processing and validation procedures.
#
#######################################################################

data_YOYKAZ
_symmetry_cell_setting           monoclinic
_symmetry_space_group_name_H-M   'P 21/c'
_symmetry_Int_Tables_number      14
_space_group_name_Hall           '-P 2ybc'
loop_
_symmetry_equiv_pos_site_id
_symmetry_equiv_pos_as_xyz
1 x,y,z
2 -x,1/2+y,1/2-z
3 -x,-y,-z
4 x,1/2-y,1/2+z
_cell_length_a                   13.705(3)
_cell_length_b                   12.120(3)
_cell_length_c                   18.876(3)
_cell_angle_alpha                90
_cell_angle_beta                 123.234(10)
_cell_angle_gamma                90
_cell_volume                     2622.56
loop_
_atom_site_label
_atom_site_type_symbol
_atom_site_fract_x
_atom_site_fract_y
_atom_site_fract_z
Ag1 Ag 0.37618(2) 0.557315(17) 0.482812(15)
S1 S 0.33331(6) 0.33391(6) 0.34996(4)
O1 O 0.53122(19) 0.27572(16) 0.06820(13)
N1 N 0.25741(17) 0.40673(16) 0.44304(13)
C1 C 0.5111(2) 0.1908(2) 0.09558(15)
Ag2 Ag 0.17865(2) 0.511860(18) 0.560843(15)
S2 S 0.13343(7) 0.23980(6) 0.36200(5)
O2 O 0.53699(16) 0.09350(15) 0.08709(12)
N2 N 0.18093(18) 0.39198(17) 0.46850(13)
C2 C 0.4515(2) 0.2019(2) 0.14290(15)
S3 S 0.20480(7) 0.75772(5) 0.67684(5)
O3 O -0.12676(18) 1.00805(16) 0.84033(13)
N3 N 0.2912(2) 0.67134(17) 0.59368(14)
C3 C 0.4186(3) 0.3045(2) 0.1553(2)
H1 H 0.4366 0.3675 0.1365
S4 S 0.33800(7) 0.87636(5) 0.61044(5)
O4 O -0.01512(18) 0.88103(16) 0.93566(12)
N4 N 0.3513(2) 0.69109(18) 0.55550(14)
C4 C 0.3591(3) 0.3142(2) 0.1954(2)
H2 H 0.3361 0.3835 0.2021
C5 C 0.3337(2) 0.2219(2) 0.22567(16)
C6 C 0.3708(2) 0.1200(2) 0.21669(17)
H3 H 0.3577 0.0577 0.2390
C7 C 0.4279(2) 0.1097(2) 0.17457(17)
H4 H 0.4503 0.0403 0.1676
C8 C 0.2646(3) 0.2315(2) 0.26644(19)
H5 H 0.2628 0.1608 0.2898
H6 H 0.1849 0.2532 0.2244
C9 C 0.2431(2) 0.33279(19) 0.38778(14)
C10 C 0.1120(2) 0.3095(2) 0.43138(17)
H7 H 0.0551 0.2894 0.4414
C11 C -0.0461(2) 0.9383(2) 0.87089(16)
C12 C 0.0192(2) 0.92484(19) 0.82768(15)
C13 C -0.0008(2) 0.99709(19) 0.76426(16)
H8 H -0.0569 1.0520 0.7466
C14 C 0.0624(2) 0.9884(2) 0.72651(16)
H9 H 0.0483 1.0375 0.6841
C15 C 0.1460(2) 0.90689(19) 0.75198(15)
C16 C 0.1663(2) 0.8339(2) 0.81594(16)
H10 H 0.2225 0.7791 0.8337
C17 C 0.1028(2) 0.8429(2) 0.85315(16)
H11 H 0.1165 0.7937 0.8954
C18 C 0.2148(2) 0.8997(2) 0.71107(17)
H12 H 0.2956 0.9197 0.7514
H13 H 0.1824 0.9493 0.6630
C19 C 0.2786(2) 0.7615(2) 0.62610(15)
C20 C 0.3806(2) 0.7926(2) 0.55923(17)
H14 H 0.4214 0.8183 0.5362
Ag1A Ag 0.62382(2) 0.057315(17) 0.017188(15)
Ag2A Ag -0.17865(2) 1.011860(18) 0.939157(15)
O2A O 0.46301(16) 0.59350(15) 0.41291(12)
O3A O 0.12676(18) 0.50805(16) 0.65967(13)
O5 O 0.0071(3) 0.3509(2) 0.0548(2)
H18 H 0.0536 0.3793 0.0422
H22 H 0.0115 0.2753 0.0539
O6 O 0.1260(2) 0.4496(2) -0.0114(2)
H15 H 0.0911 0.5151 -0.0278
H17 H 0.1954 0.4577 -0.0128
O7 O 0.3476(3) 0.4535(2) -0.01168(17)
H16 H 0.3407 0.4720 -0.0601
H20 H 0.3833 0.3858 0.0070
O8 O 0.3107(3) 0.5487(2) -0.15871(16)
H19 H 0.3632 0.5998 -0.1438
H21 H 0.2681 0.5537 -0.2142
loop_
_geom_bond_atom_site_label_1
_geom_bond_atom_site_label_2
_geom_bond_site_symmetry_1
_geom_bond_site_symmetry_2
Ag1 N1 1_555 1_555
S1 C8 1_555 1_555
O1 C1 1_555 1_555
N1 N2 1_555 1_555
C1 O2 1_555 1_555
Ag2 N2 1_555 1_555
S2 C9 1_555 1_555
O2 Ag1A 1_555 1_555
N2 C10 1_555 1_555
C2 C1 1_555 1_555
S3 C18 1_555 1_555
O3 C11 1_555 1_555
N3 Ag2 1_555 1_555
C3 C2 1_555 1_555
H1 C3 1_555 1_555
S4 C19 1_555 1_555
O4 C11 1_555 1_555
N4 Ag1 1_555 1_555
C4 C3 1_555 1_555
H2 C4 1_555 1_555
O5 H18 1_555 1_555
C5 C4 1_555 1_555
O6 H15 1_555 1_555
C6 C5 1_555 1_555
H3 C6 1_555 1_555
O7 H16 1_555 1_555
C7 C2 1_555 1_555
H4 C7 1_555 1_555
O8 H19 1_555 1_555
C8 C5 1_555 1_555
H5 C8 1_555 1_555
H6 C8 1_555 1_555
C9 S1 1_555 1_555
C10 S2 1_555 1_555
H7 C10 1_555 1_555
C11 C12 1_555 1_555
C12 C13 1_555 1_555
C13 H8 1_555 1_555
C14 C13 1_555 1_555
H9 C14 1_555 1_555
C15 C14 1_555 1_555
C16 C15 1_555 1_555
H10 C16 1_555 1_555
C17 C12 1_555 1_555
H11 C17 1_555 1_555
C18 C15 1_555 1_555
H12 C18 1_555 1_555
H13 C18 1_555 1_555
C19 S3 1_555 1_555
C20 S4 1_555 1_555
H14 C20 1_555 1_555
H17 O6 1_555 1_555
H20 O7 1_555 1_555
H21 O8 1_555 1_555
H22 O5 1_555 1_555
Ag2A O3 1_555 1_555
O2A Ag1 1_555 1_555
O3A Ag2 1_555 1_555
N1 C9 1_555 1_555
N3 N4 1_555 1_555
N3 C19 1_555 1_555
N4 C20 1_555 1_555
C6 C7 1_555 1_555
C16 C17 1_555 1_555

#END
