
#######################################################################
#
#                 Cambridge Crystallographic Data Centre
#                                CCDC 
#
#######################################################################
#
# If this CIF has been generated from an entry in the Cambridge 
# Structural Database, then it will include bibliographic, chemical, 
# crystal, experimental, refinement or atomic coordinate data resulting 
# from the CCDC's data processing and validation procedures.
#
#######################################################################

data_YOYKED
_symmetry_cell_setting           triclinic
_symmetry_space_group_name_H-M   'P -1'
_symmetry_Int_Tables_number      2
_space_group_name_Hall           '-P 1'
loop_
_symmetry_equiv_pos_site_id
_symmetry_equiv_pos_as_xyz
1 x,y,z
2 -x,-y,-z
_cell_length_a                   7.6722(1)
_cell_length_b                   8.2857(1)
_cell_length_c                   14.2434(2)
_cell_angle_alpha                98.232(1)
_cell_angle_beta                 99.911(1)
_cell_angle_gamma                95.065(1)
_cell_volume                     876.802
loop_
_atom_site_label
_atom_site_type_symbol
_atom_site_fract_x
_atom_site_fract_y
_atom_site_fract_z
Nd1 Nd 0.691174(15) 0.703050(14) 0.916391(8)
Ag1 Ag 0.67339(3) 1.41344(3) 0.533650(15)
O1 O 0.6135(3) 0.7439(2) 0.60315(13)
O2 O 0.5893(2) 0.7524(2) 0.75723(12)
O3 O 0.3713(2) 1.2483(2) 0.92045(11)
O4 O 0.4423(2) 1.48763(19) 0.87409(11)
O5 O 1.0180(3) 0.0187(2) 0.70862(17)
H1 H 1.0389 -0.0734 0.7185
O6 O 1.1563(3) -0.0384(2) 0.58331(14)
O7 O 0.8821(2) 0.5622(2) 0.82190(13)
O8 O 1.0604(3) 0.7713(2) 0.79503(13)
O9 O 0.7863(2) 0.4657(2) 0.99137(13)
H2 H 0.861(3) 0.397(3) 0.982(2)
H3 H 0.731(3) 0.451(3) 1.0363(17)
O10 O 0.4012(2) 0.8267(2) 0.91997(13)
H4 H 0.383(3) 0.874(3) 0.9732(10)
H5 H 0.313(3) 0.811(4) 0.8740(12)
O11 O 0.9990(2) 0.79358(19) 1.01079(12)
O12 O 1.2219(2) 0.9982(2) 1.05326(12)
N1 N 0.6018(3) 1.2549(2) 0.63203(14)
N2 N 1.1964(3) 0.4665(2) 0.56526(14)
C1 C 0.5950(3) 0.8170(3) 0.68241(17)
C2 C 0.5750(3) 0.9992(3) 0.69235(16)
C3 C 0.6153(3) 1.0928(3) 0.62408(16)
H6 H 0.6536 1.0411 0.5702
C4 C 0.5438(3) 1.3282(3) 0.70982(16)
H7 H 0.5347 1.4402 0.7162
C5 C 0.4974(3) 1.2437(3) 0.78024(15)
C6 C 0.4322(3) 1.3323(3) 0.86476(15)
C7 C 0.5149(3) 1.0775(3) 0.77168(16)
H8 H 0.4864 1.0184 0.8189
C8 C 1.0933(3) 0.0565(3) 0.63698(18)
C9 C 1.0964(3) 0.2364(3) 0.63375(17)
C10 C 1.1722(3) 0.3042(3) 0.56454(16)
H9 H 1.2075 0.2345 0.5159
C11 C 1.1426(3) 0.5661(3) 0.63564(17)
H10 H 1.1629 0.6791 0.6380
C12 C 1.0586(3) 0.5074(3) 0.70431(16)
C13 C 0.9952(3) 0.6229(3) 0.77931(17)
C14 C 1.0367(3) 0.3396(3) 0.70385(17)
H11 H 0.9826 0.2967 0.7500
C15 C 1.0635(3) 0.9391(3) 1.01882(16)
Nd1A Nd 0.308826(15) 1.296950(14) 1.083609(8)
Nd1_2 Nd 0.691174(15) 1.703050(14) 0.916391(8)
Nd1A_2 Nd 1.308826(15) 1.296950(14) 1.083609(8)
Nd1A_3 Nd 1.308826(15) 1.296950(14) 0.083609(8)
Nd1A_4 Nd 1.308826(15) 0.296950(14) 0.083609(8)
Nd1_3 Nd 1.691174(15) 0.703050(14) -0.083609(8)
Ag1A Ag 1.32661(3) 0.58656(3) 0.466350(15)
O1A O 1.3865(3) 1.2561(2) 0.39685(13)
O2A O 1.4107(2) 1.2476(2) 0.24277(12)
O3A O 0.6287(2) 0.7517(2) 1.07955(11)
O3A_2 O 1.6287(2) 0.7517(2) 0.07955(11)
O3_2 O 1.3713(2) 1.2483(2) -0.07955(11)
O4_2 O 0.4423(2) 0.48763(19) 0.87409(11)
O4A O 1.5577(2) 0.51237(19) 0.12591(11)
O4A_2 O 1.5577(2) 1.51237(19) 0.12591(11)
O5A O 0.9820(3) 1.9813(2) 0.29138(17)
H1A H 0.9611 2.0734 0.2815
O6A O 0.8437(3) 2.0384(2) 0.41669(14)
O7A O 1.1179(2) 1.4378(2) 0.17810(13)
O8A O 0.9396(3) 1.2287(2) 0.20497(13)
O9A O 1.2137(2) 1.5343(2) 0.00863(13)
H2A H 1.139(3) 1.603(3) 0.018(2)
H3A H 1.269(3) 1.549(3) -0.0363(17)
O10A O 1.5988(2) 1.1733(2) 0.08003(13)
H4A H 1.617(3) 1.126(3) 0.0268(10)
H5A H 1.687(3) 1.189(4) 0.1260(12)
O11A O 1.0010(2) 1.20642(19) 0.98921(12)
O11A_2 O 1.0010(2) 1.20642(19) -0.01079(12)
O12A O 0.7781(2) 1.0018(2) 0.94674(12)
O12_2 O 1.2219(2) 0.9982(2) 0.05326(12)
N1A N 1.3982(3) 0.7451(2) 0.36797(14)
N2A N 0.8036(3) 1.5335(2) 0.43474(14)
C1A C 1.4050(3) 1.1830(3) 0.31759(17)
C2A C 1.4250(3) 1.0008(3) 0.30765(16)
C3A C 1.3847(3) 0.9072(3) 0.37592(16)
H6A H 1.3464 0.9589 0.4298
C4A C 1.4562(3) 0.6718(3) 0.29018(16)
H7A H 1.4653 0.5598 0.2838
C5A C 1.5026(3) 0.7563(3) 0.21976(15)
C6A C 1.5678(3) 0.6677(3) 0.13524(15)
C7A C 1.4851(3) 0.9225(3) 0.22832(16)
H8A H 1.5136 0.9816 0.1811
C8A C 0.9067(3) 1.9435(3) 0.36302(18)
C9A C 0.9036(3) 1.7636(3) 0.36625(17)
C10A C 0.8278(3) 1.6958(3) 0.43546(16)
H9A H 0.7925 1.7655 0.4841
C11A C 0.8574(3) 1.4339(3) 0.36436(17)
H10A H 0.8371 1.3209 0.3620
C12A C 0.9414(3) 1.4926(3) 0.29569(16)
C13A C 1.0048(3) 1.3771(3) 0.22069(17)
C14A C 0.9633(3) 1.6604(3) 0.29615(17)
H11A H 1.0174 1.7033 0.2500
C15A C 0.9365(3) 1.0609(3) 0.98118(16)
loop_
_geom_bond_atom_site_label_1
_geom_bond_atom_site_label_2
_geom_bond_site_symmetry_1
_geom_bond_site_symmetry_2
Nd1 O2 1_555 1_555
Ag1 N1 1_555 1_555
O1 C1 1_555 1_555
O2 C1 1_555 1_555
O3 C6 1_555 1_555
O4 C6 1_555 1_555
O5 H1 1_555 1_555
O6 C8 1_555 1_555
O7 Nd1 1_555 1_555
O8 C13 1_555 1_555
O9 Nd1 1_555 1_555
H2 O9 1_555 1_555
H3 O9 1_555 1_555
O10 Nd1 1_555 1_555
H4 O10 1_555 1_555
H5 O10 1_555 1_555
O11 Nd1 1_555 1_555
O12 C15 1_555 1_555
N1 C3 1_555 1_555
N2 C10 1_555 1_555
C1 C2 1_555 1_555
C2 C3 1_555 1_555
C3 H6 1_555 1_555
C4 N1 1_555 1_555
H7 C4 1_555 1_555
C5 C4 1_555 1_555
C6 C5 1_555 1_555
C7 C2 1_555 1_555
H8 C7 1_555 1_555
C8 O5 1_555 1_555
C9 C8 1_555 1_555
C10 C9 1_555 1_555
H9 C10 1_555 1_555
C11 N2 1_555 1_555
H10 C11 1_555 1_555
C12 C11 1_555 1_555
C13 O7 1_555 1_555
C14 C9 1_555 1_555
H11 C14 1_555 1_555
C15 O11 1_555 1_555
Nd1A O3 1_555 1_555
Nd1_2 O4 1_555 1_555
Nd1A_2 O12 1_555 1_555
Nd1A_3 O2A 1_555 1_555
Nd1A_4 O4A 1_555 1_555
Nd1_3 O3A_2 1_555 1_555
Ag1A N2 1_555 1_555
O1A C1A 1_555 1_555
O2A C1A 1_555 1_555
O3A Nd1 1_555 1_555
O3A_2 C6A 1_555 1_555
O3_2 Nd1A_3 1_555 1_555
O4_2 Nd1 1_555 1_555
O4A C6A 1_555 1_555
O4A_2 Nd1A_3 1_555 1_555
O5A H1A 1_555 1_555
O6A C8A 1_555 1_555
O7A Nd1A_3 1_555 1_555
O8A C13A 1_555 1_555
O9A Nd1A_3 1_555 1_555
H2A O9A 1_555 1_555
H3A O9A 1_555 1_555
O10A Nd1A_3 1_555 1_555
H4A O10A 1_555 1_555
H5A O10A 1_555 1_555
O11A Nd1A_2 1_555 1_555
O11A_2 Nd1A_3 1_555 1_555
O12A Nd1 1_555 1_555
O12_2 Nd1A_3 1_555 1_555
N1A Ag1A 1_555 1_555
N2A Ag1 1_555 1_555
C1A C2A 1_555 1_555
C2A C3A 1_555 1_555
C3A N1A 1_555 1_555
H6A C3A 1_555 1_555
C4A N1A 1_555 1_555
H7A C4A 1_555 1_555
C5A C4A 1_555 1_555
C6A C5A 1_555 1_555
C7A C2A 1_555 1_555
H8A C7A 1_555 1_555
C8A O5A 1_555 1_555
C9A C8A 1_555 1_555
C10A N2A 1_555 1_555
H9A C10A 1_555 1_555
C11A N2A 1_555 1_555
H10A C11A 1_555 1_555
C12A C11A 1_555 1_555
C13A O7A 1_555 1_555
C14A C9A 1_555 1_555
H11A C14A 1_555 1_555
C15A C15 1_555 1_555
C5 C7 1_555 1_555
C12 C13 1_555 1_555
C12 C14 1_555 1_555
O11A C15A 1_555 1_555
O12A C15A 1_555 1_555
C5A C7A 1_555 1_555
C9A C10A 1_555 1_555
C12A C13A 1_555 1_555
C12A C14A 1_555 1_555

#END
