
#######################################################################
#
#                 Cambridge Crystallographic Data Centre
#                                CCDC 
#
#######################################################################
#
# If this CIF has been generated from an entry in the Cambridge 
# Structural Database, then it will include bibliographic, chemical, 
# crystal, experimental, refinement or atomic coordinate data resulting 
# from the CCDC's data processing and validation procedures.
#
#######################################################################

data_YOYNUX
_symmetry_cell_setting           trigonal
_symmetry_space_group_name_H-M   'P -3 1 c'
_symmetry_Int_Tables_number      163
_space_group_name_Hall           "-P 3 2'c"
loop_
_symmetry_equiv_pos_site_id
_symmetry_equiv_pos_as_xyz
1 x,y,z
2 -y,x-y,z
3 -x+y,-x,z
4 -y,-x,1/2-z
5 x,x-y,1/2-z
6 -x+y,y,1/2-z
7 -x,-y,-z
8 y,-x+y,-z
9 x-y,x,-z
10 y,x,1/2+z
11 -x,-x+y,1/2+z
12 x-y,-y,1/2+z
_cell_length_a                   16.802(5)
_cell_length_b                   16.802(5)
_cell_length_c                   13.960(5)
_cell_angle_alpha                90
_cell_angle_beta                 90
_cell_angle_gamma                120
_cell_volume                     3413.01
loop_
_atom_site_label
_atom_site_type_symbol
_atom_site_fract_x
_atom_site_fract_y
_atom_site_fract_z
Cl1 Cl 0.19741(13) 0.80259(13) 0.2500
O2 O 0.2394(6) 0.9022(6) 0.2689(6)
O3 O 0.2185(9) 0.7583(5) 0.3098(11)
O2C O 0.0978(6) 0.7606(6) 0.2311(6)
O3C O 0.2417(5) 0.7815(9) 0.1902(11)
Ni1 Ni -0.3333 0.3333 0.10348(4)
O1 O -0.22227(13) 0.42457(13) 0.18150(13)
N1 N 0.11230(16) 0.50644(16) 0.41281(16)
N2 N 0.22851(15) 0.56156(15) 0.51762(16)
C1 C -0.1845(2) 0.40777(12) 0.2500
C2 C -0.0805(3) 0.45975(13) 0.2500
C3 C -0.03331(19) 0.45860(19) 0.33121(19)
H1 H -0.0653 0.4265 0.3855
C4 C 0.06175(19) 0.50556(19) 0.33055(19)
C5 C 0.1100(3) 0.55499(14) 0.2500
H2 H 0.1739 0.5869 0.2500
C6 C 0.19114(18) 0.57979(19) 0.44469(18)
H3 H 0.2164 0.6379 0.4172
C7 C 0.1700(2) 0.4682(2) 0.5365(2)
C8 C 0.1754(3) 0.4120(2) 0.6064(3)
H4 H 0.2233 0.4346 0.6506
C9 C 0.1067(3) 0.3213(3) 0.6072(4)
H5 H 0.1089 0.2819 0.6525
C10 C 0.0338(4) 0.2865(3) 0.5420(4)
H6 H -0.0116 0.2250 0.5458
C11 C 0.0277(3) 0.3414(2) 0.4721(3)
H7 H -0.0201 0.3182 0.4279
C12 C 0.0963(2) 0.4325(2) 0.4714(2)
O1D O -0.22227(13) 0.35316(18) 0.31850(13)
N1D N 0.11230(16) 0.60586(23) 0.08719(16)
N2D N 0.22851(15) 0.66695(21) -0.01762(16)
C3D C -0.03331(19) 0.50809(27) 0.16879(19)
H1D H -0.0653 0.5082 0.1145
C4D C 0.06175(19) 0.55619(27) 0.16945(19)
C6D C 0.19114(18) 0.61135(26) 0.05531(18)
H3D H 0.2164 0.5785 0.0828
C7D C 0.1700(2) 0.7018(3) -0.0365(2)
C8D C 0.1754(3) 0.7634(4) -0.1064(3)
H4D H 0.2233 0.7887 -0.1506
C9D C 0.1067(3) 0.7854(4) -0.1072(4)
H5D H 0.1089 0.8270 -0.1525
C10D C 0.0338(4) 0.7473(5) -0.0420(4)
H6D H -0.0116 0.7634 -0.0458
C11D C 0.0277(3) 0.6863(4) 0.0279(3)
H7D H -0.0201 0.6617 0.0721
C12D C 0.0963(2) 0.6638(3) 0.0286(2)
O1A O -0.42457(13) 0.35316(18) 0.18150(13)
N1A N -0.50644(16) 0.60586(23) 0.41281(16)
N2A N -0.56156(15) 0.66695(21) 0.51762(16)
C1A C -0.40777(12) 0.40773(23) 0.2500
C2A C -0.45975(13) 0.45975(33) 0.2500
C3A C -0.45860(19) 0.50809(27) 0.33121(19)
H1A H -0.4265 0.5082 0.3855
C4A C -0.50556(19) 0.55619(27) 0.33055(19)
C5A C -0.55499(14) 0.55501(33) 0.2500
H2A H -0.5869 0.5870 0.2500
C6A C -0.57979(19) 0.61135(26) 0.44469(18)
H3A H -0.6379 0.5785 0.4172
C7A C -0.4682(2) 0.7018(3) 0.5365(2)
C8A C -0.4120(2) 0.7634(4) 0.6064(3)
H4A H -0.4346 0.7887 0.6506
C9A C -0.3213(3) 0.7854(4) 0.6072(4)
H5A H -0.2819 0.8270 0.6525
C10A C -0.2865(3) 0.7473(5) 0.5420(4)
H6A H -0.2250 0.7634 0.5458
C11A C -0.3414(2) 0.6863(4) 0.4721(3)
H7A H -0.3182 0.6617 0.4279
C12A C -0.4325(2) 0.6638(3) 0.4714(2)
O1E O -0.35316(18) 0.42457(13) 0.31850(13)
N1E N -0.60586(23) 0.50644(16) 0.08719(16)
N2E N -0.66695(21) 0.56156(15) -0.01762(16)
C3E C -0.50809(27) 0.45860(19) 0.16879(19)
H1E H -0.5082 0.4265 0.1145
C4E C -0.55619(27) 0.50556(19) 0.16945(19)
C6E C -0.61135(26) 0.57979(19) 0.05531(18)
H3E H -0.5785 0.6379 0.0828
C7E C -0.7018(3) 0.4682(2) -0.0365(2)
C8E C -0.7634(4) 0.4120(2) -0.1064(3)
H4E H -0.7887 0.4346 -0.1506
C9E C -0.7854(4) 0.3213(3) -0.1072(4)
H5E H -0.8270 0.2819 -0.1525
C10E C -0.7473(5) 0.2865(3) -0.0420(4)
H6E H -0.7634 0.2250 -0.0458
C11E C -0.6863(4) 0.3414(2) 0.0279(3)
H7E H -0.6617 0.3182 0.0721
C12E C -0.6638(3) 0.4325(2) 0.0286(2)
O1B O -0.35316(18) 0.22227(13) 0.18150(13)
N1B N -0.60586(23) -0.11230(16) 0.41281(16)
N2B N -0.66695(21) -0.22851(15) 0.51762(16)
C1B C -0.40773(23) 0.1845(2) 0.2500
C2B C -0.45975(33) 0.0805(3) 0.2500
C3B C -0.50809(27) 0.03331(19) 0.33121(19)
H1B H -0.5082 0.0653 0.3855
C4B C -0.55619(27) -0.06175(19) 0.33055(19)
C5B C -0.55501(33) -0.1100(3) 0.2500
H2B H -0.5870 -0.1739 0.2500
C6B C -0.61135(26) -0.19114(18) 0.44469(18)
H3B H -0.5785 -0.2164 0.4172
C7B C -0.7018(3) -0.1700(2) 0.5365(2)
C8B C -0.7634(4) -0.1754(3) 0.6064(3)
H4B H -0.7887 -0.2233 0.6506
C9B C -0.7854(4) -0.1067(3) 0.6072(4)
H5B H -0.8270 -0.1089 0.6525
C10B C -0.7473(5) -0.0338(4) 0.5420(4)
H6B H -0.7634 0.0116 0.5458
C11B C -0.6863(4) -0.0277(3) 0.4721(3)
H7B H -0.6617 0.0201 0.4279
C12B C -0.6638(3) -0.0963(2) 0.4714(2)
O1C O -0.42457(13) 0.22227(13) 0.31850(13)
N1C N -0.50644(16) -0.11230(16) 0.08719(16)
N2C N -0.56156(15) -0.22851(15) -0.01762(16)
C3C C -0.45860(19) 0.03331(19) 0.16879(19)
H1C H -0.4265 0.0653 0.1145
C4C C -0.50556(19) -0.06175(19) 0.16945(19)
C6C C -0.57979(19) -0.19114(18) 0.05531(18)
H3C H -0.6379 -0.2164 0.0828
C7C C -0.4682(2) -0.1700(2) -0.0365(2)
C8C C -0.4120(2) -0.1754(3) -0.1064(3)
H4C H -0.4346 -0.2233 -0.1506
C9C C -0.3213(3) -0.1067(3) -0.1072(4)
H5C H -0.2819 -0.1089 -0.1525
C10C C -0.2865(3) -0.0338(4) -0.0420(4)
H6C H -0.2250 0.0116 -0.0458
C11C C -0.3414(2) -0.0277(3) 0.0279(3)
H7C H -0.3182 0.0201 0.0721
C12C C -0.4325(2) -0.0963(2) 0.0286(2)
Ni1C Ni -0.3333 0.3333 0.39652(4)
Ni1F Ni -0.6667 -0.3333 -0.10348(4)
Ni1F_2 Ni -0.6667 0.6667 -0.10348(4)
Ni1F_3 Ni 0.3333 0.6667 -0.10348(4)
Ni1I Ni -0.6667 -0.3333 0.60348(4)
Ni1I_2 Ni -0.6667 0.6667 0.60348(4)
Ni1I_3 Ni 0.3333 0.6667 0.60348(4)
N2F N -0.22851(15) 0.43844(15) 0.48238(16)
N2G N -0.43844(15) 0.33305(21) 0.48238(16)
N2H N -0.33305(21) 0.22851(15) 0.48238(16)
N2I N -0.43844(15) 0.22851(15) 0.01762(16)
N2J N -0.22851(15) 0.33305(21) 0.01762(16)
N2K N -0.33305(21) 0.43844(15) 0.01762(16)
loop_
_geom_bond_atom_site_label_1
_geom_bond_atom_site_label_2
_geom_bond_site_symmetry_1
_geom_bond_site_symmetry_2
Ni1 O1 1_555 1_555
O1 C1 1_555 1_555
N1 C4 1_555 1_555
N2 C6 1_555 1_555
C1 C2 1_555 1_555
C2 C3 1_555 1_555
C3 H1 1_555 1_555
C4 C3 1_555 1_555
C5 C4 1_555 1_555
H2 C5 1_555 1_555
C6 N1 1_555 1_555
H3 C6 1_555 1_555
C7 N2 1_555 1_555
C8 C7 1_555 1_555
H4 C8 1_555 1_555
C9 C8 1_555 1_555
H5 C9 1_555 1_555
C10 C9 1_555 1_555
H6 C10 1_555 1_555
C11 C10 1_555 1_555
H7 C11 1_555 1_555
C12 N1 1_555 1_555
Cl1 O2 1_555 1_555
O3 Cl1 1_555 1_555
O1D C1 1_555 1_555
N1D C4D 1_555 1_555
N2D C6D 1_555 1_555
C3D C2 1_555 1_555
H1D C3D 1_555 1_555
C4D C5 1_555 1_555
C6D N1D 1_555 1_555
H3D C6D 1_555 1_555
C7D N2D 1_555 1_555
C8D C7D 1_555 1_555
H4D C8D 1_555 1_555
C9D C8D 1_555 1_555
H5D C9D 1_555 1_555
C10D C9D 1_555 1_555
H6D C10D 1_555 1_555
C11D C10D 1_555 1_555
H7D C11D 1_555 1_555
C12D N1D 1_555 1_555
O1A Ni1 1_555 1_555
N1A C4A 1_555 1_555
N2A C6A 1_555 1_555
C1A O1A 1_555 1_555
C2A C1A 1_555 1_555
C3A C2A 1_555 1_555
H1A C3A 1_555 1_555
C4A C3A 1_555 1_555
C5A C4A 1_555 1_555
H2A C5A 1_555 1_555
C6A N1A 1_555 1_555
H3A C6A 1_555 1_555
C7A N2A 1_555 1_555
C8A C7A 1_555 1_555
H4A C8A 1_555 1_555
C9A C8A 1_555 1_555
H5A C9A 1_555 1_555
C10A C9A 1_555 1_555
H6A C10A 1_555 1_555
C11A C10A 1_555 1_555
H7A C11A 1_555 1_555
C12A N1A 1_555 1_555
O1E C1A 1_555 1_555
N1E C4E 1_555 1_555
N2E C6E 1_555 1_555
C3E C2A 1_555 1_555
H1E C3E 1_555 1_555
C4E C5A 1_555 1_555
C6E N1E 1_555 1_555
H3E C6E 1_555 1_555
C7E N2E 1_555 1_555
C8E C7E 1_555 1_555
H4E C8E 1_555 1_555
C9E C8E 1_555 1_555
H5E C9E 1_555 1_555
C10E C9E 1_555 1_555
H6E C10E 1_555 1_555
C11E C10E 1_555 1_555
H7E C11E 1_555 1_555
C12E N1E 1_555 1_555
O1B Ni1 1_555 1_555
N1B C4B 1_555 1_555
N2B C6B 1_555 1_555
C1B O1B 1_555 1_555
C2B C1B 1_555 1_555
C3B C2B 1_555 1_555
H1B C3B 1_555 1_555
C4B C3B 1_555 1_555
C5B C4B 1_555 1_555
H2B C5B 1_555 1_555
C6B N1B 1_555 1_555
H3B C6B 1_555 1_555
C7B N2B 1_555 1_555
C8B C7B 1_555 1_555
H4B C8B 1_555 1_555
C9B C8B 1_555 1_555
H5B C9B 1_555 1_555
C10B C9B 1_555 1_555
H6B C10B 1_555 1_555
C11B C10B 1_555 1_555
H7B C11B 1_555 1_555
C12B N1B 1_555 1_555
O1C C1B 1_555 1_555
N1C C4C 1_555 1_555
N2C C6C 1_555 1_555
C3C C2B 1_555 1_555
H1C C3C 1_555 1_555
C4C C5B 1_555 1_555
C6C N1C 1_555 1_555
H3C C6C 1_555 1_555
C7C N2C 1_555 1_555
C8C C7C 1_555 1_555
H4C C8C 1_555 1_555
C9C C8C 1_555 1_555
H5C C9C 1_555 1_555
C10C C9C 1_555 1_555
H6C C10C 1_555 1_555
C11C C10C 1_555 1_555
H7C C11C 1_555 1_555
C12C N1C 1_555 1_555
Ni1C O1D 1_555 1_555
Ni1F N2C 1_555 1_555
Ni1F_2 N2E 1_555 1_555
Ni1F_3 N2D 1_555 1_555
Ni1I N2B 1_555 1_555
Ni1I_2 N2A 1_555 1_555
Ni1I_3 N2 1_555 1_555
N2F Ni1C 1_555 1_555
N2G Ni1C 1_555 1_555
N2H Ni1C 1_555 1_555
N2I Ni1 1_555 1_555
N2J Ni1 1_555 1_555
N2K Ni1 1_555 1_555
O2C Cl1 1_555 1_555
O3C Cl1 1_555 1_555
C7 C12 1_555 1_555
C11 C12 1_555 1_555
C3D C4D 1_555 1_555
C7D C12D 1_555 1_555
C11D C12D 1_555 1_555
C7A C12A 1_555 1_555
C11A C12A 1_555 1_555
O1E Ni1C 1_555 1_555
C3E C4E 1_555 1_555
C7E C12E 1_555 1_555
C11E C12E 1_555 1_555
C7B C12B 1_555 1_555
C11B C12B 1_555 1_555
O1C Ni1C 1_555 1_555
C3C C4C 1_555 1_555
C7C C12C 1_555 1_555
C11C C12C 1_555 1_555

#END
