
#######################################################################
#
#                 Cambridge Crystallographic Data Centre
#                                CCDC 
#
#######################################################################
#
# If this CIF has been generated from an entry in the Cambridge 
# Structural Database, then it will include bibliographic, chemical, 
# crystal, experimental, refinement or atomic coordinate data resulting 
# from the CCDC's data processing and validation procedures.
#
#######################################################################

data_YOYPAD
_symmetry_cell_setting           monoclinic
_symmetry_space_group_name_H-M   'P 21'
_symmetry_Int_Tables_number      4
_space_group_name_Hall           'P 2yb'
loop_
_symmetry_equiv_pos_site_id
_symmetry_equiv_pos_as_xyz
1 x,y,z
2 -x,1/2+y,-z
_cell_length_a                   6.728(1)
_cell_length_b                   32.117(9)
_cell_length_c                   8.150(1)
_cell_angle_alpha                90
_cell_angle_beta                 111.60(1)
_cell_angle_gamma                90
_cell_volume                     1637.41
loop_
_atom_site_label
_atom_site_type_symbol
_atom_site_fract_x
_atom_site_fract_y
_atom_site_fract_z
O33 O 0.122(2) 0.7586(5) 0.458(2)
O34 O 0.083(2) 0.0426(5) 0.953(2)
La1 La 0.0380(1) 0.493 0.5823(1)
La2 La -0.9591(1) 0.3082(3) 0.0831(1)
Cu1 Cu 0.0002(7) 0.6510(2) 0.2459(5)
O1 O -0.308(2) 0.3470(4) 0.463(1)
O2 O -0.738(1) 0.3713(3) 0.131(1)
O3 O -0.606(2) 0.4686(4) 0.188(1)
O4 O -0.253(1) 0.4467(3) 0.566(1)
O5 O 0.066(2) 0.5710(4) 0.592(2)
O6 O 0.114(2) 0.6680(4) 0.494(1)
O7 O 0.384(2) 0.6893(4) 0.896(2)
O8 O 0.382(2) 0.5909(4) 0.996(2)
O9 O -1.626(2) 0.3342(4) -0.301(1)
O10 O -1.223(2) 0.3594(4) 0.054(2)
O11 O -1.327(2) 0.4549(4) -0.018(2)
O12 O 0.274(2) 0.4351(5) 0.621(2)
O13 O -0.0891(2) 0.6325(4) 0.001(1)
O14 O -0.3616(2) 0.6131(3) -0.4016(1)
O15 O -0.4086(2) 0.7123(4) -0.4924(2)
O16 O -0.9183(2) 0.2305(3) 0.093(1)
O17 O -1.234(1) 0.2825(3) -0.202(1)
O18 O -0.936(2) 0.3428(4) 0.374(1)
O19 O -0.631(2) 0.2875(3) 0.335(1)
O20 O -0.724(2) 0.2842(4) -0.073(1)
O21 O -1.024(2) 0.3557(4) -0.188(2)
O22 O -1.252(1) 0.2731(3) 0.168(1)
O23 O 0.264(2) 0.5158(4) 0.414(2)
O24 O 0.397(2) 0.5141(4) 0.814(1)
O25 O -0.260(2) 0.5233(4) 0.303(2)
O26 O 0.053(2) 0.4705(5) 0.884(2)
O27 O -0.013(2) 0.4443(4) 0.310(1)
O28 O -0.256(2) 0.5319(5) 0.660(2)
O29 O 0.227(2) 0.6882(4) 0.221(2)
O30 O -0.203(2) 0.6117(4) 0.286(1)
O31 O -0.269(2) 0.7047(4) 0.191(1)
O32 O 0.290(2) 0.6010(4) 0.305(2)
C1 C -0.420(3) 0.3809(6) 0.398(2)
C2 C -0.593(3) 0.3925(6) 0.239(2)
C3 C -0.539(2) 0.4348(5) 0.276(2)
C4 C -0.377(3) 0.4259(6) 0.436(2)
C5 C 0.169(3) 0.6030(6) 0.675(2)
C6 C 0.179(2) 0.6490(5) 0.628(2)
C7 C 0.293(3) 0.6564(6) 0.823(2)
C8 C 0.302(3) 0.6141(6) 0.870(2)
C9 C -1.551(3) 0.3669(6) -0.226(2)
C10 C -1.368(2) 0.3782(5) -0.068(2)
C11 C -1.400(3) 0.4202(6) -0.092(2)
C12 C 0.410(2) 0.4138(5) 0.746(2)
C13 C -0.1635(2) 0.6581(5) -0.1386(2)
C14 C -0.3043(2) 0.6457(5) -0.3115(2)
C15 C -0.3025(3) 0.6921(6) -0.3547(2)
C16 C -0.8372(2) 0.1998(5) 0.1766(2)
C12_2 C -1.590(2) 0.4138(5) -0.254(2)
C9_2 C 0.449(3) 0.3669(6) 0.774(2)
C11_2 C 0.600(3) 0.4202(6) 0.908(2)
C16A C -0.1628(2) 0.6998(5) -0.1766(2)
C13A C -0.8365(2) 0.1581(5) 0.1386(2)
C15A C -0.6975(3) 0.1921(6) 0.3547(2)
loop_
_geom_bond_atom_site_label_1
_geom_bond_atom_site_label_2
_geom_bond_site_symmetry_1
_geom_bond_site_symmetry_2
La1 O4 1_555 1_555
La2 O2 1_555 1_555
Cu1 O6 1_555 1_555
O1 C1 1_555 1_555
O2 C2 1_555 1_555
O3 C3 1_555 1_555
O4 C4 1_555 1_555
O5 La1 1_555 1_555
O6 C6 1_555 1_555
O7 C7 1_555 1_555
O8 C8 1_555 1_555
O9 C9 1_555 1_555
O10 La2 1_555 1_555
O11 C11 1_555 1_555
O12 La1 1_555 1_555
O13 Cu1 1_555 1_555
O14 C14 1_555 1_555
O15 C15 1_555 1_555
O16 La2 1_555 1_555
O17 La2 1_555 1_555
O18 La2 1_555 1_555
O19 La2 1_555 1_555
O20 La2 1_555 1_555
O21 La2 1_555 1_555
O22 La2 1_555 1_555
O23 La1 1_555 1_555
O24 La1 1_555 1_555
O25 La1 1_555 1_555
O26 La1 1_555 1_555
O27 La1 1_555 1_555
O28 La1 1_555 1_555
O29 Cu1 1_555 1_555
O30 Cu1 1_555 1_555
O31 Cu1 1_555 1_555
O32 Cu1 1_555 1_555
C1 C2 1_555 1_555
C2 C3 1_555 1_555
C3 C4 1_555 1_555
C4 C1 1_555 1_555
C5 O5 1_555 1_555
C6 C5 1_555 1_555
C7 C6 1_555 1_555
C8 C5 1_555 1_555
C9 C10 1_555 1_555
C10 O10 1_555 1_555
C11 C10 1_555 1_555
C12 O12 1_555 1_555
C13 O13 1_555 1_555
C14 C13 1_555 1_555
C15 C14 1_555 1_555
C16 O16 1_555 1_555
C12_2 C9 1_555 1_555
C9_2 C12 1_555 1_555
C11_2 C12 1_555 1_555
C16A C13 1_555 1_555
C13A C16 1_555 1_555
C15A C16 1_555 1_555
C7 C8 1_555 1_555
C11 C12_2 1_555 1_555
C15 C16A 1_555 1_555

#END
