
#######################################################################
#
#                 Cambridge Crystallographic Data Centre
#                                CCDC 
#
#######################################################################
#
# If this CIF has been generated from an entry in the Cambridge 
# Structural Database, then it will include bibliographic, chemical, 
# crystal, experimental, refinement or atomic coordinate data resulting 
# from the CCDC's data processing and validation procedures.
#
#######################################################################

data_YOYTOW
_symmetry_cell_setting           monoclinic
_symmetry_space_group_name_H-M   'P 21/c'
_symmetry_Int_Tables_number      14
_space_group_name_Hall           '-P 2ybc'
loop_
_symmetry_equiv_pos_site_id
_symmetry_equiv_pos_as_xyz
1 x,y,z
2 -x,1/2+y,1/2-z
3 -x,-y,-z
4 x,1/2-y,1/2+z
_cell_length_a                   10.5847(9)
_cell_length_b                   19.0579(13)
_cell_length_c                   23.1327(14)
_cell_angle_alpha                90
_cell_angle_beta                 102.038(10)
_cell_angle_gamma                90
_cell_volume                     4563.76
loop_
_atom_site_label
_atom_site_type_symbol
_atom_site_fract_x
_atom_site_fract_y
_atom_site_fract_z
Ag1 Ag 0.38349(8) 0.92526(4) 0.12783(4)
Ag2 Ag 0.07130(9) 0.86340(5) 0.14239(4)
Ag3 Ag 0.13077(8) 1.08301(4) 0.37686(4)
Ag4 Ag 0.29755(9) 1.12911(5) -0.10983(4)
Ag5 Ag 0.18571(10) 0.84796(5) 0.59535(4)
Ag6 Ag 0.40602(13) 1.16018(6) 0.33581(6)
C1 C 0.3372(11) 1.0434(6) 0.2275(5)
C2 C 0.4408(12) 1.0827(7) 0.2067(5)
H1 H 0.4986 1.0498 0.1934
H2 H 0.4891 1.1107 0.2389
H3 H 0.4024 1.1132 0.1742
C3 C 0.1529(11) 0.9774(6) 0.2639(5)
C4 C 0.0468(14) 0.9398(7) 0.2842(6)
H4 H -0.0174 0.9247 0.2502
H5 H 0.0070 0.9710 0.3083
H6 H 0.0817 0.8991 0.3073
C5 C 0.0919(11) 0.9670(5) 0.4820(5)
C6 C 0.1940(15) 0.9279(7) 0.4614(6)
H7 H 0.1946 0.8796 0.4747
H8 H 0.2771 0.9493 0.4773
H9 H 0.1777 0.9291 0.4185
C7 C 0.4059(9) 1.0330(5) 0.0178(4)
C8 C 0.3033(13) 1.0708(6) 0.0400(5)
H10 H 0.2293 1.0776 0.0078
H11 H 0.2776 1.0434 0.0710
H12 H 0.3357 1.1160 0.0556
C10 C 0.0811(13) 1.2518(7) 0.5302(6)
C11 C -0.160(2) 1.0784(9) 0.1443(9)
C12 C 0.5624(16) 1.2594(9) 0.5276(7)
C14 C -0.1397(15) 0.7556(8) 0.2874(6)
N1 N 0.2912(9) 0.9835(5) 0.2005(4)
N2 N 0.1953(9) 0.9506(5) 0.2178(4)
N3 N 0.2953(9) 1.0695(5) 0.2748(4)
N4 N 0.2022(9) 1.0351(5) 0.2934(4)
N5 N 0.0409(9) 1.0247(5) 0.4521(4)
N6 N 0.0516(9) 0.9416(4) 0.5298(4)
N7 N 0.4346(9) 1.0528(4) -0.0335(4)
N8 N 0.4705(9) 0.9805(5) 0.0517(4)
O4 O -0.0261(8) 1.2458(5) 0.4183(4)
O5 O 0.1794(11) 1.3054(5) 0.4480(4)
O6 O 0.1688(9) 1.1779(4) 0.4536(4)
O7 O -0.1061(10) 0.9527(4) 0.1235(4)
O8 O 0.0532(10) 1.0439(6) 0.1179(7)
O9 O -0.1394(14) 1.0363(7) 0.0427(5)
O10 O 0.5211(10) 1.3119(5) 0.4217(4)
O11 O 0.5160(15) 1.1855(6) 0.4340(5)
O12 O 0.7180(11) 1.2463(6) 0.4584(5)
O16 O -0.2497(12) 0.7562(7) 0.1766(5)
O17 O -0.0652(12) 0.6818(5) 0.2067(5)
O18 O -0.0415(16) 0.8063(7) 0.2049(5)
O19 O 0.6012(10) 0.9037(6) 0.1927(4)
H13 H 0.6027 0.8697 0.2168
H14 H 0.6351 0.9399 0.2111
O20 O 0.1805(10) 0.8872(5) 0.0632(4)
H15 H 0.1893 0.8498 0.0432
H16 H 0.1456 0.9191 0.0386
O21 O -0.1049(10) 1.0932(6) 0.3261(4)
H17 H -0.1409 1.0532 0.3171
H18 H -0.1161 1.1181 0.2942
O22 O 0.3647(13) 1.0662(8) 0.4222(6)
H19 H 0.3907 1.0246 0.4237
H20 H 0.3851 1.0834 0.4591
F4 F 0.0220(11) 1.3121(5) 0.5371(4)
F5 F 0.1924(8) 1.2534(4) 0.5687(3)
F6 F 0.0115(9) 1.1994(5) 0.5437(3)
F7 F -0.109(2) 1.0738(7) 0.2001(5)
F8 F -0.2888(13) 1.0599(7) 0.1354(7)
F9 F -0.1506(11) 1.1455(4) 0.1271(5)
F10 F 0.4402(11) 1.2573(8) 0.5303(5)
F11 F 0.6274(14) 1.2107(7) 0.5627(4)
F12 F 0.5973(15) 1.3200(6) 0.5500(4)
F16 F -0.1906(13) 0.8193(7) 0.2961(5)
F17 F -0.2155(12) 0.7095(6) 0.3017(4)
F18 F -0.0313(11) 0.7601(6) 0.3246(4)
S2 S 0.1042(3) 1.24399(14) 0.45477(12)
S3 S -0.0778(4) 1.02143(17) 0.10120(15)
S4 S 0.5857(3) 1.25178(15) 0.45330(12)
S6 S -0.1227(3) 0.74996(15) 0.21064(12)
Ag1B Ag 0.61651(8) 1.07474(4) -0.12783(4)
Ag2B Ag 0.92870(9) 1.13660(5) -0.14239(4)
Ag2B_2 Ag -0.07130(9) 1.13660(5) -0.14239(4)
Ag2A Ag -0.07130(9) 1.36340(5) 0.35761(4)
Ag3B Ag 0.86923(8) 0.91699(4) -0.37686(4)
Ag3B_2 Ag -0.13077(8) 0.91699(4) 0.62314(4)
Ag3C Ag 0.13077(8) 1.41699(4) -0.12314(4)
Ag4B Ag 0.70245(9) 0.87089(5) 0.10983(4)
Ag4C Ag 0.29755(9) 1.37089(5) 0.39017(4)
Ag4B_2 Ag -0.29755(9) 0.87089(5) 0.10983(4)
Ag5B Ag -0.18571(10) 1.15204(5) 0.40465(4)
Ag5B_2 Ag 0.81429(10) 1.15204(5) 0.40465(4)
Ag5A Ag -0.18571(10) 1.34796(5) -0.09535(4)
Ag6B Ag 0.59398(13) 0.83982(6) -0.33581(6)
Ag6A Ag -0.40602(13) 0.66018(6) 0.16419(6)
Ag6B_2 Ag 0.59398(13) 0.83982(6) 0.66419(6)
C1B C 0.6628(11) 0.9566(6) -0.2275(5)
C2B C 0.5592(12) 0.9173(7) -0.2067(5)
H1B H 0.5014 0.9502 -0.1934
H2B H 0.5109 0.8893 -0.2389
H3B H 0.5976 0.8868 -0.1742
C3B C 0.8471(11) 1.0226(6) -0.2639(5)
C4B C 0.9532(14) 1.0602(7) -0.2842(6)
H4B H 1.0174 1.0753 -0.2502
H5B H 0.9930 1.0290 -0.3083
H6B H 0.9183 1.1009 -0.3073
C5B C -0.0919(11) 1.0330(5) 0.5180(5)
C6B C -0.1940(15) 1.0721(7) 0.5386(6)
H7B H -0.1946 1.1204 0.5253
H8B H -0.2771 1.0507 0.5227
H9B H -0.1777 1.0709 0.5815
C7B C 0.5941(9) 0.9670(5) -0.0178(4)
C8B C 0.6967(13) 0.9292(6) -0.0400(5)
H10B H 0.7707 0.9224 -0.0078
H11B H 0.7224 0.9566 -0.0710
H12B H 0.6643 0.8840 -0.0556
C10C C 0.0811(13) 1.2482(7) 0.0302(6)
C11B C 0.160(2) 0.9216(9) -0.1443(9)
C12B C 0.4376(16) 0.7406(9) 0.4724(7)
C14A C 0.1397(15) 1.2556(8) 0.2126(6)
N1B N 0.7088(9) 1.0165(5) -0.2005(4)
N2B N 0.8047(9) 1.0494(5) -0.2178(4)
N3B N 0.7047(9) 0.9305(5) -0.2748(4)
N4B N 0.7978(9) 0.9649(5) -0.2934(4)
N5B N -0.0409(9) 0.9753(5) 0.5479(4)
N5B_2 N 0.9591(9) 0.9753(5) -0.4521(4)
N6B N -0.0516(9) 1.0584(4) 0.4702(4)
N7B N 0.5654(9) 0.9472(4) 0.0335(4)
N8B N 0.5295(9) 1.0195(5) -0.0517(4)
O4C O -0.0261(8) 1.2542(5) -0.0817(4)
O4B O 0.0261(8) 0.7542(5) 0.5817(4)
O5C O 0.1794(11) 1.1946(5) -0.0520(4)
O5A O 0.8206(11) 0.8054(5) 0.0520(4)
O6C O 0.1688(9) 1.3221(4) -0.0464(4)
O6B O 0.8312(9) 0.8221(4) -0.4536(4)
O7B O 0.1061(10) 1.0473(4) -0.1235(4)
O7_2 O 0.8939(10) 0.9527(4) 0.1235(4)
O7B_2 O 1.1061(10) 1.0473(4) -0.1235(4)
O8B O -0.0532(10) 0.9561(6) -0.1179(7)
O9B O 0.1394(14) 0.9637(7) -0.0427(5)
O10B O 0.4789(10) 0.6881(5) 0.5783(4)
O11B O 0.4840(15) 0.8145(6) 0.5660(5)
O11B_2 O 0.4840(15) 0.8145(6) -0.4340(5)
O12B O 0.2820(11) 0.7537(6) 0.5416(5)
O12_2 O -0.2820(11) 1.2463(6) 0.4584(5)
O16A O 0.2497(12) 1.2562(7) 0.3234(5)
O16C O 0.7503(12) 0.7438(7) -0.3234(5)
O17A O 0.0652(12) 1.1818(5) 0.2933(5)
O18A O 0.0415(16) 1.3063(7) 0.2951(5)
O18B O 1.0415(16) 1.1937(7) -0.2049(5)
O19B O 0.3988(10) 1.0963(6) -0.1927(4)
H13B H 0.3973 1.1303 -0.2168
H14B H 0.3649 1.0601 -0.2111
O20B O 0.8195(10) 1.1128(5) -0.0632(4)
H15B H 0.8107 1.1502 -0.0432
H16B H 0.8544 1.0809 -0.0386
O21B O 0.1049(10) 0.9068(6) 0.6739(4)
O21B_2 O 1.1049(10) 0.9068(6) -0.3261(4)
H17B H 0.1409 0.9468 0.6829
H17B_2 H 1.1409 0.9468 -0.3171
H18B H 0.1161 0.8819 0.7058
H18B_2 H 1.1161 0.8819 -0.2942
O22B O 0.6353(13) 0.9338(8) -0.4222(6)
H19B H 0.6093 0.9754 -0.4237
H20B H 0.6149 0.9166 -0.4591
F4C F 0.0220(11) 1.1879(5) 0.0371(4)
F5C F 0.1924(8) 1.2466(4) 0.0687(3)
F6C F 0.0115(9) 1.3006(5) 0.0437(3)
F7B F 0.109(2) 0.9262(7) -0.2001(5)
F8B F 0.2888(13) 0.9401(7) -0.1354(7)
F9B F 0.1506(11) 0.8545(4) -0.1271(5)
F10B F 0.5598(11) 0.7427(8) 0.4697(5)
F11B F 0.3726(14) 0.7893(7) 0.4373(4)
F12B F 0.4027(15) 0.6800(6) 0.4500(4)
F16A F 0.1906(13) 1.3193(7) 0.2039(5)
F17A F 0.2155(12) 1.2095(6) 0.1983(4)
F18A F 0.0313(11) 1.2601(6) 0.1754(4)
S2C S 0.1042(3) 1.25601(14) -0.04523(12)
S3B S 0.0778(4) 0.97857(17) -0.10120(15)
S4B S 0.4143(3) 0.74822(15) 0.54670(12)
S6A S 0.1227(3) 1.24996(15) 0.28936(12)
C9 C 0.3350(17) 0.7602(9) 0.2830(6)
O1 O 0.3036(9) 0.8145(5) 0.1780(4)
O2 O 0.358(2) 0.6903(6) 0.1922(5)
O3 O 0.5154(11) 0.7702(9) 0.2274(7)
F1 F 0.2191(15) 0.7421(14) 0.2784(9)
F2 F 0.4083(14) 0.7216(7) 0.3216(4)
F3 F 0.335(2) 0.8224(8) 0.3043(4)
S1 S 0.3763(3) 0.75897(15) 0.21156(11)
C13 C 0.326(2) 0.4116(10) 0.1021(10)
O13 O 0.3472(16) 0.5478(6) 0.1128(6)
O14 O 0.5125(13) 0.4793(9) 0.1690(7)
O15 O 0.3140(14) 0.4880(8) 0.1982(5)
F13 F 0.368(2) 0.4147(9) 0.0555(7)
F14 F 0.3583(13) 0.3549(5) 0.1302(6)
F15 F 0.1936(14) 0.4137(7) 0.0873(8)
S5 S 0.3735(5) 0.49005(19) 0.15068(18)
loop_
_geom_bond_atom_site_label_1
_geom_bond_atom_site_label_2
_geom_bond_site_symmetry_1
_geom_bond_site_symmetry_2
Ag1 N1 1_555 1_555
Ag2 N2 1_555 1_555
Ag3 N4 1_555 1_555
Ag4 N7 1_555 1_555
Ag5 N6 1_555 1_555
Ag6 N3 1_555 1_555
C1 C2 1_555 1_555
C2 H1 1_555 1_555
H2 C2 1_555 1_555
H3 C2 1_555 1_555
C3 C4 1_555 1_555
C4 H4 1_555 1_555
H5 C4 1_555 1_555
H6 C4 1_555 1_555
C5 C6 1_555 1_555
C6 H7 1_555 1_555
H8 C6 1_555 1_555
H9 C6 1_555 1_555
C7 C8 1_555 1_555
C8 H10 1_555 1_555
H11 C8 1_555 1_555
H12 C8 1_555 1_555
C9 F1 1_555 1_555
C10 F4 1_555 1_555
C11 F7 1_555 1_555
C12 F10 1_555 1_555
C13 F13 1_555 1_555
C14 F16 1_555 1_555
N1 C1 1_555 1_555
N2 C3 1_555 1_555
N3 C1 1_555 1_555
N4 C3 1_555 1_555
N5 Ag3 1_555 1_555
N6 C5 1_555 1_555
N7 C7 1_555 1_555
N8 Ag1 1_555 1_555
O1 S1 1_555 1_555
O2 S1 1_555 1_555
O3 S1 1_555 1_555
O4 S2 1_555 1_555
O5 S2 1_555 1_555
O6 Ag3 1_555 1_555
O7 Ag2 1_555 1_555
O8 S3 1_555 1_555
O9 S3 1_555 1_555
O10 S4 1_555 1_555
O11 Ag6 1_555 1_555
O12 S4 1_555 1_555
O13 S5 1_555 1_555
O14 S5 1_555 1_555
O15 S5 1_555 1_555
O16 S6 1_555 1_555
O17 S6 1_555 1_555
O18 Ag2 1_555 1_555
O19 Ag1 1_555 1_555
H13 O19 1_555 1_555
H14 O19 1_555 1_555
O20 Ag1 1_555 1_555
H15 O20 1_555 1_555
H16 O20 1_555 1_555
O21 Ag3 1_555 1_555
H17 O21 1_555 1_555
H18 O21 1_555 1_555
O22 Ag3 1_555 1_555
H19 O22 1_555 1_555
H20 O22 1_555 1_555
F2 C9 1_555 1_555
F3 C9 1_555 1_555
F5 C10 1_555 1_555
F6 C10 1_555 1_555
F8 C11 1_555 1_555
F9 C11 1_555 1_555
F11 C12 1_555 1_555
F12 C12 1_555 1_555
F14 C13 1_555 1_555
F15 C13 1_555 1_555
F17 C14 1_555 1_555
F18 C14 1_555 1_555
S1 C9 1_555 1_555
S2 C10 1_555 1_555
S3 C11 1_555 1_555
S4 C12 1_555 1_555
S5 C13 1_555 1_555
S6 C14 1_555 1_555
Ag1B N1B 1_555 1_555
Ag2B N2B 1_555 1_555
Ag2B_2 O7B 1_555 1_555
Ag2A O18A 1_555 1_555
Ag3B N4B 1_555 1_555
Ag3B_2 N5B 1_555 1_555
Ag3C O6C 1_555 1_555
Ag4B O19 1_555 1_555
Ag4C O5 1_555 1_555
Ag4B_2 O7 1_555 1_555
Ag5B O4 1_555 1_555
Ag5B_2 O12 1_555 1_555
Ag5A O4C 1_555 1_555
Ag6B N3B 1_555 1_555
Ag6A O16 1_555 1_555
Ag6B_2 O11B 1_555 1_555
C1B C2B 1_555 1_555
C2B H1B 1_555 1_555
H2B C2B 1_555 1_555
H3B C2B 1_555 1_555
C3B C4B 1_555 1_555
C4B H4B 1_555 1_555
H5B C4B 1_555 1_555
H6B C4B 1_555 1_555
C5B C6B 1_555 1_555
C6B H7B 1_555 1_555
H8B C6B 1_555 1_555
H9B C6B 1_555 1_555
C7B C8B 1_555 1_555
C8B H10B 1_555 1_555
H11B C8B 1_555 1_555
H12B C8B 1_555 1_555
C10C F4C 1_555 1_555
C11B F7B 1_555 1_555
C12B F10B 1_555 1_555
C14A F16A 1_555 1_555
N1B C1B 1_555 1_555
N2B C3B 1_555 1_555
N3B C1B 1_555 1_555
N4B C3B 1_555 1_555
N5B N6 1_555 1_555
N5B_2 Ag3B 1_555 1_555
N6B N5 1_555 1_555
N7B N8 1_555 1_555
N8B N7 1_555 1_555
O4C S2C 1_555 1_555
O4B Ag5 1_555 1_555
O5C Ag4 1_555 1_555
O5A Ag4B 1_555 1_555
O6C S2C 1_555 1_555
O6B Ag3B 1_555 1_555
O7B Ag4 1_555 1_555
O7_2 Ag4B 1_555 1_555
O7B_2 Ag2B 1_555 1_555
O8B S3B 1_555 1_555
O9B S3B 1_555 1_555
O10B S4B 1_555 1_555
O11B S4B 1_555 1_555
O11B_2 Ag6B 1_555 1_555
O12B Ag5 1_555 1_555
O12_2 Ag5B 1_555 1_555
O16A Ag6 1_555 1_555
O16C Ag6B 1_555 1_555
O17A S6A 1_555 1_555
O18A S6A 1_555 1_555
O18B Ag2B 1_555 1_555
O19B Ag4 1_555 1_555
H13B O19B 1_555 1_555
H14B O19B 1_555 1_555
O20B Ag1B 1_555 1_555
H15B O20B 1_555 1_555
H16B O20B 1_555 1_555
O21B Ag5 1_555 1_555
O21B_2 Ag3B 1_555 1_555
H17B O21B 1_555 1_555
H17B_2 O21B_2 1_555 1_555
H18B O21B 1_555 1_555
H18B_2 O21B_2 1_555 1_555
O22B Ag3B 1_555 1_555
H19B O22B 1_555 1_555
H20B O22B 1_555 1_555
F5C C10C 1_555 1_555
F6C C10C 1_555 1_555
F8B C11B 1_555 1_555
F9B C11B 1_555 1_555
F11B C12B 1_555 1_555
F12B C12B 1_555 1_555
F17A C14A 1_555 1_555
F18A C14A 1_555 1_555
S2C C10C 1_555 1_555
S3B C11B 1_555 1_555
S4B C12B 1_555 1_555
S6A C14A 1_555 1_555
Ag2 O20 1_555 1_555
C5 N5 1_555 1_555
C7 N8 1_555 1_555
N1 N2 1_555 1_555
N3 N4 1_555 1_555
O6 S2 1_555 1_555
O7 S3 1_555 1_555
O11 S4 1_555 1_555
O18 S6 1_555 1_555
O21 Ag5B 1_555 1_555
Ag1B N8B 1_555 1_555
Ag1B O19B 1_555 1_555
Ag2B O20B 1_555 1_555
Ag3B_2 O21B 1_555 1_555
Ag4B N7B 1_555 1_555
Ag5B N6B 1_555 1_555
C5B N5B 1_555 1_555
C5B N6B 1_555 1_555
C7B N7B 1_555 1_555
C7B N8B 1_555 1_555
N1B N2B 1_555 1_555
N3B N4B 1_555 1_555
O5C S2C 1_555 1_555
O7B S3B 1_555 1_555
O12B S4B 1_555 1_555
O16A S6A 1_555 1_555

#END
