
#######################################################################
#
#                 Cambridge Crystallographic Data Centre
#                                CCDC 
#
#######################################################################
#
# If this CIF has been generated from an entry in the Cambridge 
# Structural Database, then it will include bibliographic, chemical, 
# crystal, experimental, refinement or atomic coordinate data resulting 
# from the CCDC's data processing and validation procedures.
#
#######################################################################

data_YOYVAL
_symmetry_cell_setting           rhombohedral
_symmetry_space_group_name_H-M   'R -3 m'
_symmetry_Int_Tables_number      166
_space_group_name_Hall           '-R 3 2"'
loop_
_symmetry_equiv_pos_site_id
_symmetry_equiv_pos_as_xyz
1 x,y,z
2 -y,x-y,z
3 -x+y,-x,z
4 x-y,-y,-z
5 -x,-x+y,-z
6 y,x,-z
7 2/3+x,1/3+y,1/3+z
8 2/3-y,1/3+x-y,1/3+z
9 2/3-x+y,1/3-x,1/3+z
10 2/3+x-y,1/3-y,1/3-z
11 2/3-x,1/3-x+y,1/3-z
12 2/3+y,1/3+x,1/3-z
13 1/3+x,2/3+y,2/3+z
14 1/3-y,2/3+x-y,2/3+z
15 1/3-x+y,2/3-x,2/3+z
16 1/3+x-y,2/3-y,2/3-z
17 1/3-x,2/3-x+y,2/3-z
18 1/3+y,2/3+x,2/3-z
19 -x,-y,-z
20 y,-x+y,-z
21 x-y,x,-z
22 -x+y,y,z
23 x,x-y,z
24 -y,-x,z
25 1/3-x,2/3-y,2/3-z
26 1/3+y,2/3-x+y,2/3-z
27 1/3+x-y,2/3+x,2/3-z
28 1/3-x+y,2/3+y,2/3+z
29 1/3+x,2/3+x-y,2/3+z
30 1/3-y,2/3-x,2/3+z
31 2/3-x,1/3-y,1/3-z
32 2/3+y,1/3-x+y,1/3-z
33 2/3+x-y,1/3+x,1/3-z
34 2/3-x+y,1/3+y,1/3+z
35 2/3+x,1/3+x-y,1/3+z
36 2/3-y,1/3-x,1/3+z
_cell_length_a                   26.8824(10)
_cell_length_b                   26.8824(10)
_cell_length_c                   10.2072(5)
_cell_angle_alpha                90
_cell_angle_beta                 90
_cell_angle_gamma                120
_cell_volume                     6388.12
loop_
_atom_site_label
_atom_site_type_symbol
_atom_site_fract_x
_atom_site_fract_y
_atom_site_fract_z
C1 C 0.5899(6) 0.0845(6) 0.5157(13)
S1 S 0.5353(3) 0.0706(6) 0.5828(14)
C2 C 0.5918(10) 0.1170(11) 0.401(3)
C1U C 0.4946(8) 0.0845(6) 0.5157(13)
C2U C 0.5252(15) 0.1170(11) 0.401(3)
Ag1 Ag 0.3333 0.96480(4) 0.6667
Fe1 Fe 0.5000 1.0000 1.0000
N1 N 0.45267(15) 0.9053(3) 1.0102(9)
N2 N 0.4399(3) 0.9981(3) 0.8570(7)
N3 N 0.30402(15) 0.69598(15) 1.0058(7)
C3 C 0.3956(3) 0.8758(3) 1.0098(9)
H1 H 0.3758 0.8959 1.0097
C4 C 0.3645(3) 0.8167(2) 1.0095(8)
H2 H 0.3246 0.7979 1.0103
C5 C 0.39265(17) 0.7853(3) 1.0079(10)
C6 C 0.36153(16) 0.7231(3) 1.0076(9)
C7 C 0.4024(3) 0.9906(4) 0.7894(9)
N1A N 0.0947(3) 0.54737(34) 1.0102(9)
N3A N 0.30402(15) 0.60804(21) 1.0058(7)
C3A C 0.1242(3) 0.5198(4) 1.0098(9)
H1A H 0.1041 0.4799 1.0097
C4A C 0.1833(2) 0.5478(4) 1.0095(8)
H2A H 0.2021 0.5267 1.0103
C5A C 0.2147(3) 0.60735(34) 1.0079(10)
C6A C 0.2769(3) 0.63843(34) 1.0076(9)
N1B N 0.45263(34) 0.54733(15) 1.0102(9)
N3B N 0.39196(21) 0.69598(15) 1.0058(7)
C3B C 0.4802(4) 0.6044(3) 1.0098(9)
H1B H 0.5201 0.6242 1.0097
C4B C 0.4522(4) 0.6355(3) 1.0095(8)
H2B H 0.4733 0.6754 1.0103
C5B C 0.39265(34) 0.60735(17) 1.0079(10)
C6B C 0.36157(34) 0.63847(16) 1.0076(9)
C3U C 0.4802(4) 0.8758(3) 1.0098(9)
H1U H 0.5201 0.8959 1.0097
C4U C 0.4522(4) 0.8167(2) 1.0095(8)
H2U H 0.4733 0.7979 1.0103
C3V C 0.3956(3) 0.5198(4) 1.0098(9)
H1V H 0.3758 0.4799 1.0097
C4V C 0.3645(3) 0.5478(4) 1.0095(8)
H2V H 0.3246 0.5267 1.0103
C3W C 0.1242(3) 0.6044(3) 1.0098(9)
H1W H 0.1041 0.6242 1.0097
C4W C 0.1833(2) 0.6355(3) 1.0095(8)
H2W H 0.2021 0.6754 1.0103
Ag1A Ag 0.03520(4) 0.36850(4) 0.6667
Fe1A Fe 0.0000 0.5000 1.0000
N2A N 0.0019(3) 0.4418(4) 0.8570(7)
C7A C 0.0094(4) 0.4118(5) 0.7894(9)
Ag1B Ag 0.63150(4) 0.6667 0.6667
Fe1B Fe 0.5000 0.5000 1.0000
N2B N 0.5582(4) 0.5601(3) 0.8570(7)
C7B C 0.5882(5) 0.5976(3) 0.7894(9)
N2I N 0.1085(4) 0.3352(3) 0.4763(7)
C7I C 0.0785(5) 0.3427(4) 0.5439(9)
N2J N 0.2268(3) 0.8915(4) 0.4763(7)
C7J C 0.2643(3) 0.9215(5) 0.5439(9)
N2K N 0.6648(3) 0.7732(3) 0.4763(7)
C7K C 0.6573(4) 0.7357(3) 0.5439(9)
Ag1U Ag 0.63150(4) 0.96480(4) 0.6667
N2U N 0.5582(4) 0.9981(3) 0.8570(7)
C7U C 0.5882(5) 0.9906(4) 0.7894(9)
Ag1V Ag 0.3333 0.36850(4) 0.6667
N2V N 0.4399(3) 0.4418(4) 0.8570(7)
C7V C 0.4024(3) 0.4118(5) 0.7894(9)
Ag1W Ag 0.03520(4) 0.6667 0.6667
N2W N 0.0019(3) 0.5601(3) 0.8570(7)
C7W C 0.0094(4) 0.5976(3) 0.7894(9)
N2DA N 0.2268(3) 0.3352(3) 0.4763(7)
C7DA C 0.2643(3) 0.3427(4) 0.5439(9)
N2EA N 0.6648(3) 0.8915(4) 0.4763(7)
C7EA C 0.6573(4) 0.9215(5) 0.5439(9)
N2FA N 0.1085(4) 0.7732(3) 0.4763(7)
C7FA C 0.0785(5) 0.7357(3) 0.5439(9)
N1C N 0.54737(34) 1.0947(3) 0.9898(9)
N3C N 0.60804(21) 1.30402(15) 0.9942(7)
C3C C 0.5198(4) 1.1242(3) 0.9902(9)
H1C H 0.4799 1.1041 0.9903
C4C C 0.5478(4) 1.1833(2) 0.9905(8)
H2C H 0.5267 1.2021 0.9897
C5C C 0.60735(34) 1.2147(3) 0.9921(10)
C6C C 0.63843(34) 1.2769(3) 0.9924(9)
N1D N 0.54733(15) 1.45263(34) 0.9898(9)
N3D N 0.69598(15) 1.39196(21) 0.9942(7)
C3D C 0.6044(3) 1.4802(4) 0.9902(9)
H1D H 0.6242 1.5201 0.9903
C4D C 0.6355(3) 1.4522(4) 0.9905(8)
H2D H 0.6754 1.4733 0.9897
C5D C 0.60735(17) 1.39265(34) 0.9921(10)
C6D C 0.63847(16) 1.36157(34) 0.9924(9)
N1E N 0.9053(3) 1.45267(15) 0.9898(9)
N3E N 0.69598(15) 1.30402(15) 0.9942(7)
C3E C 0.8758(3) 1.3956(3) 0.9902(9)
H1E H 0.8959 1.3758 0.9903
C4E C 0.8167(2) 1.3645(3) 0.9905(8)
H2E H 0.7979 1.3246 0.9897
C5E C 0.7853(3) 1.39265(17) 0.9921(10)
C6E C 0.7231(3) 1.36153(16) 0.9924(9)
C3R C 0.6044(3) 1.1242(3) 0.9902(9)
H1R H 0.6242 1.1041 0.9903
C4R C 0.6355(3) 1.1833(2) 0.9905(8)
H2R H 0.6754 1.2021 0.9897
C3S C 0.8758(3) 1.4802(4) 0.9902(9)
H1S H 0.8959 1.5201 0.9903
C4S C 0.8167(2) 1.4522(4) 0.9905(8)
H2S H 0.7979 1.4733 0.9897
C3T C 0.5198(4) 1.3956(3) 0.9902(9)
H1T H 0.4799 1.3758 0.9903
C4T C 0.5478(4) 1.3645(3) 0.9905(8)
H2T H 0.5267 1.3246 0.9897
Fe1A_2 Fe 1.0000 1.5000 1.0000
Fe1B_2 Fe 0.5000 1.5000 1.0000
Fe1F Fe 0.1667 0.3333 0.3333
Fe1G Fe 0.6667 0.8333 0.3333
Fe1H Fe 0.1667 0.8333 0.3333
N1D_2 N 0.54733(15) 0.45263(34) 0.9898(9)
N1E_2 N -0.0947(3) 0.45267(15) 0.9898(9)
N2C N 0.4418(4) 1.0019(3) 1.1430(7)
N2D N 0.5601(3) 0.5582(4) 1.1430(7)
N2E N -0.0019(3) 0.4399(3) 1.1430(7)
N2R N 0.5601(3) 1.0019(3) 1.1430(7)
N2S N -0.0019(3) 0.5582(4) 1.1430(7)
N2T N 0.4418(4) 0.4399(3) 1.1430(7)
loop_
_geom_bond_atom_site_label_1
_geom_bond_atom_site_label_2
_geom_bond_site_symmetry_1
_geom_bond_site_symmetry_2
C1 S1 1_555 1_555
S1 C1U 1_555 1_555
C2 C1 1_555 1_555
Ag1 C7 1_555 1_555
Fe1 N1 1_555 1_555
N1 C3 1_555 1_555
N2 Fe1 1_555 1_555
N3 C6 1_555 1_555
C3 H1 1_555 1_555
C4 C3 1_555 1_555
H2 C4 1_555 1_555
C5 C4 1_555 1_555
C6 C5 1_555 1_555
C7 N2 1_555 1_555
C1U C2U 1_555 1_555
C2U C2 1_555 1_555
N1A C3A 1_555 1_555
N3A C6A 1_555 1_555
C3A H1A 1_555 1_555
C4A C3A 1_555 1_555
H2A C4A 1_555 1_555
C5A C4A 1_555 1_555
C6A N3 1_555 1_555
N1B C3B 1_555 1_555
N3B C6 1_555 1_555
C3B H1B 1_555 1_555
C4B C3B 1_555 1_555
H2B C4B 1_555 1_555
C5B C4B 1_555 1_555
C6B N3A 1_555 1_555
C3U N1 1_555 1_555
H1U C3U 1_555 1_555
C4U C5 1_555 1_555
H2U C4U 1_555 1_555
C3V N1B 1_555 1_555
H1V C3V 1_555 1_555
C4V C5B 1_555 1_555
H2V C4V 1_555 1_555
C3W N1A 1_555 1_555
H1W C3W 1_555 1_555
C4W C5A 1_555 1_555
H2W C4W 1_555 1_555
Ag1A C7A 1_555 1_555
Fe1A N1A 1_555 1_555
N2A Fe1A 1_555 1_555
C7A N2A 1_555 1_555
Ag1B C7B 1_555 1_555
Fe1B N1B 1_555 1_555
N2B Fe1B 1_555 1_555
C7B N2B 1_555 1_555
N2I C7I 1_555 1_555
C7I Ag1A 1_555 1_555
N2J C7J 1_555 1_555
C7J Ag1 1_555 1_555
N2K C7K 1_555 1_555
C7K Ag1B 1_555 1_555
Ag1U C7U 1_555 1_555
N2U Fe1 1_555 1_555
C7U N2U 1_555 1_555
Ag1V C7V 1_555 1_555
N2V Fe1B 1_555 1_555
C7V N2V 1_555 1_555
Ag1W C7W 1_555 1_555
N2W Fe1A 1_555 1_555
C7W N2W 1_555 1_555
N2DA C7DA 1_555 1_555
C7DA Ag1V 1_555 1_555
N2EA C7EA 1_555 1_555
C7EA Ag1U 1_555 1_555
N2FA C7FA 1_555 1_555
C7FA Ag1W 1_555 1_555
N1C Fe1 1_555 1_555
N3C C6C 1_555 1_555
C3C N1C 1_555 1_555
H1C C3C 1_555 1_555
C4C C3C 1_555 1_555
H2C C4C 1_555 1_555
C5C C4C 1_555 1_555
C6C C5C 1_555 1_555
N1D C3D 1_555 1_555
N3D C6D 1_555 1_555
C3D H1D 1_555 1_555
C4D C3D 1_555 1_555
H2D C4D 1_555 1_555
C5D C4D 1_555 1_555
C6D N3C 1_555 1_555
N1E C3E 1_555 1_555
N3E C6C 1_555 1_555
C3E H1E 1_555 1_555
C4E C3E 1_555 1_555
H2E C4E 1_555 1_555
C5E C4E 1_555 1_555
C6E N3D 1_555 1_555
C3R N1C 1_555 1_555
H1R C3R 1_555 1_555
C4R C5C 1_555 1_555
H2R C4R 1_555 1_555
C3S N1E 1_555 1_555
H1S C3S 1_555 1_555
C4S C5E 1_555 1_555
H2S C4S 1_555 1_555
C3T N1D 1_555 1_555
H1T C3T 1_555 1_555
C4T C5D 1_555 1_555
H2T C4T 1_555 1_555
Fe1A_2 N1E 1_555 1_555
Fe1B_2 N1D 1_555 1_555
Fe1F N2I 1_555 1_555
Fe1G N2K 1_555 1_555
Fe1H N2J 1_555 1_555
N1D_2 Fe1B 1_555 1_555
N1E_2 Fe1A 1_555 1_555
N2C Fe1 1_555 1_555
N2D Fe1B 1_555 1_555
N2E Fe1A 1_555 1_555
N2R Fe1 1_555 1_555
N2S Fe1A 1_555 1_555
N2T Fe1B 1_555 1_555
C5A C6A 1_555 1_555
N3B C6B 1_555 1_555
C5B C6B 1_555 1_555
C3U C4U 1_555 1_555
C3V C4V 1_555 1_555
C3W C4W 1_555 1_555
N2DA Fe1F 1_555 1_555
N2EA Fe1G 1_555 1_555
N2FA Fe1H 1_555 1_555
C5D C6D 1_555 1_555
N3E C6E 1_555 1_555
C5E C6E 1_555 1_555
C3R C4R 1_555 1_555
C3S C4S 1_555 1_555
C3T C4T 1_555 1_555

#END
