
#######################################################################
#
#                 Cambridge Crystallographic Data Centre
#                                CCDC 
#
#######################################################################
#
# If this CIF has been generated from an entry in the Cambridge 
# Structural Database, then it will include bibliographic, chemical, 
# crystal, experimental, refinement or atomic coordinate data resulting 
# from the CCDC's data processing and validation procedures.
#
#######################################################################

data_YOYVOZ
_symmetry_cell_setting           rhombohedral
_symmetry_space_group_name_H-M   'R -3 m'
_symmetry_Int_Tables_number      166
_space_group_name_Hall           '-R 3 2"'
loop_
_symmetry_equiv_pos_site_id
_symmetry_equiv_pos_as_xyz
1 x,y,z
2 -y,x-y,z
3 -x+y,-x,z
4 x-y,-y,-z
5 -x,-x+y,-z
6 y,x,-z
7 2/3+x,1/3+y,1/3+z
8 2/3-y,1/3+x-y,1/3+z
9 2/3-x+y,1/3-x,1/3+z
10 2/3+x-y,1/3-y,1/3-z
11 2/3-x,1/3-x+y,1/3-z
12 2/3+y,1/3+x,1/3-z
13 1/3+x,2/3+y,2/3+z
14 1/3-y,2/3+x-y,2/3+z
15 1/3-x+y,2/3-x,2/3+z
16 1/3+x-y,2/3-y,2/3-z
17 1/3-x,2/3-x+y,2/3-z
18 1/3+y,2/3+x,2/3-z
19 -x,-y,-z
20 y,-x+y,-z
21 x-y,x,-z
22 -x+y,y,z
23 x,x-y,z
24 -y,-x,z
25 1/3-x,2/3-y,2/3-z
26 1/3+y,2/3-x+y,2/3-z
27 1/3+x-y,2/3+x,2/3-z
28 1/3-x+y,2/3+y,2/3+z
29 1/3+x,2/3+x-y,2/3+z
30 1/3-y,2/3-x,2/3+z
31 2/3-x,1/3-y,1/3-z
32 2/3+y,1/3-x+y,1/3-z
33 2/3+x-y,1/3+x,1/3-z
34 2/3-x+y,1/3+y,1/3+z
35 2/3+x,1/3+x-y,1/3+z
36 2/3-y,1/3-x,1/3+z
_cell_length_a                   26.4013(9)
_cell_length_b                   26.4013(9)
_cell_length_c                   9.6662(7)
_cell_angle_alpha                90
_cell_angle_beta                 90
_cell_angle_gamma                120
_cell_volume                     5834.95
loop_
_atom_site_label
_atom_site_type_symbol
_atom_site_fract_x
_atom_site_fract_y
_atom_site_fract_z
Au1 Au 0.29228(3) 0.29228(3) 0.0000
C1 C 0.3229(7) 0.2512(7) -0.1158(17)
N1 N 0.3313(6) 0.2216(6) -0.1865(14)
Fe1 Fe 0.3333 0.1667 -0.3333
N2 N 0.4224(8) 0.2112(4) -0.327(2)
C2 C 0.4535(8) 0.1841(7) -0.324(2)
H1 H 0.4332 0.1435 -0.3194
C3 C 0.5131(8) 0.2118(8) -0.328(2)
H2 H 0.5323 0.1904 -0.3317
C4 C 0.5444(13) 0.2722(6) -0.326(4)
C5 C 0.6087(13) 0.3043(6) -0.327(4)
N3 N 0.6364(5) 0.3636(5) -0.330(2)
C1E C 0.2512(7) 0.3229(7) 0.1158(17)
N1E N 0.2216(6) 0.3313(6) 0.1865(14)
Fe1E Fe 0.1667 0.3333 0.3333
N1J N 0.3354(6) 0.2236(8) -0.4802(14)
N1V N 0.3313(6) 0.1097(8) -0.1865(14)
N2J N 0.2443(8) 0.1221(9) -0.340(2)
N1DA N 0.3354(6) 0.1117(6) -0.4802(14)
C2V C 0.4535(8) 0.2694(11) -0.324(2)
C1J C 0.3438(7) 0.2616(10) -0.5509(17)
C1V C 0.3229(7) 0.0717(10) -0.1158(17)
C1DA C 0.3438(7) 0.0821(7) -0.5509(17)
H1V H 0.4332 0.2897 -0.3194
C3V C 0.5131(8) 0.3013(11) -0.328(2)
Au1G Au 0.37439(3) 0.33333(4) -0.6667
Au1S Au 0.29228(3) 0.00000(4) 0.0000
Au1DA Au 0.37439(3) 0.04105(3) -0.6667
H2V H 0.5323 0.3419 -0.3317
C1S C 0.2512(7) -0.0717(10) 0.1158(17)
N3A N 0.6364(5) 0.2728(7) -0.330(2)
C5B C 0.6956(14) 0.3913(13) -0.327(4)
C5A C 0.6957(6) 0.3044(14) -0.327(4)
N3B N 0.7272(7) 0.3636(5) -0.330(2)
C4B C 0.7278(14) 0.4556(13) -0.326(4)
C4A C 0.7278(6) 0.2722(14) -0.326(4)
C3B C 0.6987(11) 0.4869(8) -0.328(2)
C3W C 0.7882(8) 0.4869(8) -0.328(2)
C3A C 0.7882(8) 0.3013(11) -0.328(2)
C3U C 0.6987(11) 0.2118(8) -0.328(2)
Au1H Au 0.66667(4) 0.04105(3) -0.6667
C2B C 0.7306(11) 0.5465(8) -0.324(2)
H2B H 0.6581 0.4677 -0.3317
C2W C 0.8159(7) 0.5465(8) -0.324(2)
H2W H 0.8096 0.4677 -0.3317
C2A C 0.8159(7) 0.2694(11) -0.324(2)
H2A H 0.8096 0.3419 -0.3317
C2U C 0.7306(11) 0.1841(7) -0.324(2)
H2U H 0.6581 0.1904 -0.3317
C1I C 0.7384(10) 0.0821(7) -0.5509(17)
N2B N 0.7888(9) 0.5776(8) -0.327(2)
H1B H 0.7103 0.5668 -0.3194
H1W H 0.8565 0.5668 -0.3194
N2A N 0.7888(4) 0.2112(9) -0.327(2)
H1A H 0.8565 0.2897 -0.3194
H1U H 0.7103 0.1435 -0.3194
N1FA N 0.7764(8) 0.6646(6) -0.4802(14)
N1I N 0.7764(8) 0.1117(6) -0.4802(14)
Fe1B Fe 0.8334 0.6667 -0.3333
Fe1A Fe 0.8333 0.1666 -0.3333
N2K N 0.8779(4) 0.7557(8) -0.340(2)
N1B N 0.8903(8) 0.6687(6) -0.1865(14)
N1K N 0.8883(6) 0.6646(6) -0.4802(14)
N1W N 0.7784(6) 0.6687(6) -0.1865(14)
N1A N 0.7784(6) 0.1097(8) -0.1865(14)
N1U N 0.8903(8) 0.2216(6) -0.1865(14)
N1EA N 0.8883(6) 0.2236(8) -0.4802(14)
N2I N 0.8779(9) 0.1221(4) -0.340(2)
C2K C 0.8508(7) 0.7868(8) -0.343(2)
C2FA C 0.9361(11) 0.7868(8) -0.343(2)
C1B C 0.9283(10) 0.6771(7) -0.1158(17)
C1K C 0.9179(7) 0.6562(7) -0.5509(17)
C1A C 0.7488(7) 0.0717(10) -0.1158(17)
C1U C 0.9283(10) 0.2512(7) -0.1158(17)
C1EA C 0.9179(7) 0.2616(10) -0.5509(17)
H1K H 0.8102 0.7665 -0.3473
C3K C 0.8785(8) 0.8464(8) -0.339(2)
H1FA H 0.9564 0.7665 -0.3473
C3FA C 0.9680(11) 0.8464(8) -0.339(2)
Au1B Au 1.00000(4) 0.70772(3) 0.0000
Au1F Au 0.95895(3) 0.62561(3) -0.6667
Au1A Au 0.70772(3) 0.00000(4) 0.0000
Au1T Au 1.00000(4) 0.29228(3) 0.0000
Au1EA Au 0.95895(3) 0.33333(4) -0.6667
C4K C 0.9389(6) 0.8777(13) -0.341(4)
H2K H 0.8571 0.8656 -0.3350
H2FA H 1.0086 0.8656 -0.3350
C1C C 1.0717(10) 0.7488(7) 0.1158(17)
C1F C 0.9896(7) 0.5845(7) -0.7825(17)
C1T C 1.0717(10) 0.3229(7) 0.1158(17)
C1HA C 0.9896(7) 0.4050(10) -0.7825(17)
C5K C 0.9710(6) 0.9420(13) -0.340(4)
N1T N 1.1097(8) 0.3313(6) 0.1865(14)
N3K N 1.0303(5) 0.9697(5) -0.337(2)
N3I N 0.9395(7) 0.9697(5) -0.337(2)
Fe1E_2 Fe 1.1667 0.3333 0.3333
C5J C 1.0580(13) 1.0289(14) -0.340(4)
C5I C 0.9711(14) 1.0290(6) -0.340(4)
N3J N 1.0303(5) 1.0605(7) -0.337(2)
C4J C 1.1223(13) 1.0611(14) -0.341(4)
C4I C 0.9389(14) 1.0611(6) -0.341(4)
C3J C 1.1536(8) 1.0320(11) -0.339(2)
C3DA C 1.1536(8) 1.1215(8) -0.339(2)
C3I C 0.9680(11) 1.1215(8) -0.339(2)
C3EA C 0.8785(8) 1.0320(11) -0.339(2)
H2J H 1.1344 0.9914 -0.3350
C2J C 1.2132(8) 1.0639(11) -0.343(2)
C2DA C 1.2132(8) 1.1492(7) -0.343(2)
H2DA H 1.1344 1.1429 -0.3350
C2I C 0.9361(11) 1.1492(7) -0.343(2)
H2I H 1.0086 1.1429 -0.3350
C2EA C 0.8508(7) 1.0639(11) -0.343(2)
H2EA H 0.8571 0.9914 -0.3350
N2J_2 N 1.2443(8) 1.1221(9) -0.340(2)
H1J H 1.2335 1.0436 -0.3473
H1DA H 1.2335 1.1898 -0.3473
H1I H 0.9564 1.1898 -0.3473
N2I_2 N 0.8779(9) 1.1221(4) -0.340(2)
H1EA H 0.8102 1.0436 -0.3473
Fe1_2 Fe 1.3333 1.1667 -0.3333
Fe1A_2 Fe 0.8333 1.1666 -0.3333
C6 C 0.2517(13) 0.1771(12) 0.191(3)
C7 C 0.216(3) 0.1343(15) 0.103(7)
S1 S 0.275(4) 0.137(2) 0.281(7)
C6V C 0.2517(13) 0.0746(18) 0.191(3)
C7V C 0.216(3) 0.0817(34) 0.103(7)
loop_
_geom_bond_atom_site_label_1
_geom_bond_atom_site_label_2
_geom_bond_site_symmetry_1
_geom_bond_site_symmetry_2
Au1 C1 1_555 1_555
C1 N1 1_555 1_555
N1 Fe1 1_555 1_555
Fe1 N2 1_555 1_555
N2 C2 1_555 1_555
C2 H1 1_555 1_555
C3 C2 1_555 1_555
H2 C3 1_555 1_555
C4 C3 1_555 1_555
C5 C4 1_555 1_555
N3 C5 1_555 1_555
C6 C7 1_555 1_555
C7 C7V 1_555 1_555
S1 C6 1_555 1_555
C1E Au1 1_555 1_555
N1E C1E 1_555 1_555
Fe1E N1E 1_555 1_555
N1J Fe1 1_555 1_555
N1V Fe1 1_555 1_555
N2J Fe1 1_555 1_555
N1DA Fe1 1_555 1_555
C2V N2 1_555 1_555
C1J N1J 1_555 1_555
C1V N1V 1_555 1_555
C1DA N1DA 1_555 1_555
H1V C2V 1_555 1_555
C3V C4 1_555 1_555
Au1G C1J 1_555 1_555
Au1S C1V 1_555 1_555
Au1DA C1DA 1_555 1_555
H2V C3V 1_555 1_555
C1S Au1S 1_555 1_555
N3A C5 1_555 1_555
C5B N3 1_555 1_555
C5A N3A 1_555 1_555
N3B C5B 1_555 1_555
C4B C5B 1_555 1_555
C4A C5A 1_555 1_555
C3B C4B 1_555 1_555
C3W C4B 1_555 1_555
C3A C4A 1_555 1_555
C3U C4A 1_555 1_555
Au1H C1I 1_555 1_555
C2B C3B 1_555 1_555
H2B C3B 1_555 1_555
C2W C3W 1_555 1_555
H2W C3W 1_555 1_555
C2A C3A 1_555 1_555
H2A C3A 1_555 1_555
C2U C3U 1_555 1_555
H2U C3U 1_555 1_555
C1I N1I 1_555 1_555
N2B C2B 1_555 1_555
H1B C2B 1_555 1_555
H1W C2W 1_555 1_555
N2A C2A 1_555 1_555
H1A C2A 1_555 1_555
H1U C2U 1_555 1_555
N1FA Fe1B 1_555 1_555
N1I Fe1A 1_555 1_555
Fe1B N2B 1_555 1_555
Fe1A N2A 1_555 1_555
N2K Fe1B 1_555 1_555
N1B Fe1B 1_555 1_555
N1K Fe1B 1_555 1_555
N1W Fe1B 1_555 1_555
N1A Fe1A 1_555 1_555
N1U Fe1A 1_555 1_555
N1EA Fe1A 1_555 1_555
N2I Fe1A 1_555 1_555
C2K N2K 1_555 1_555
C2FA N2K 1_555 1_555
C1B N1B 1_555 1_555
C1K N1K 1_555 1_555
C1A N1A 1_555 1_555
C1U N1U 1_555 1_555
C1EA N1EA 1_555 1_555
H1K C2K 1_555 1_555
C3K C2K 1_555 1_555
H1FA C2FA 1_555 1_555
C3FA C2FA 1_555 1_555
Au1B C1B 1_555 1_555
Au1F C1K 1_555 1_555
Au1A C1A 1_555 1_555
Au1T C1U 1_555 1_555
Au1EA C1EA 1_555 1_555
C4K C3K 1_555 1_555
H2K C3K 1_555 1_555
H2FA C3FA 1_555 1_555
C1C Au1B 1_555 1_555
C1F Au1F 1_555 1_555
C1T Au1T 1_555 1_555
C1HA Au1EA 1_555 1_555
C5K C4K 1_555 1_555
N1T C1T 1_555 1_555
N3K C5K 1_555 1_555
N3I C5K 1_555 1_555
Fe1E_2 N1T 1_555 1_555
C5J N3K 1_555 1_555
C5I N3I 1_555 1_555
N3J C5J 1_555 1_555
C4J C5J 1_555 1_555
C4I C5I 1_555 1_555
C3J C4J 1_555 1_555
C3DA C4J 1_555 1_555
C3I C4I 1_555 1_555
C3EA C4I 1_555 1_555
H2J C3J 1_555 1_555
C2J C3J 1_555 1_555
C2DA C3DA 1_555 1_555
H2DA C3DA 1_555 1_555
C2I C3I 1_555 1_555
H2I C3I 1_555 1_555
C2EA C3EA 1_555 1_555
H2EA C3EA 1_555 1_555
N2J_2 C2J 1_555 1_555
H1J C2J 1_555 1_555
H1DA C2DA 1_555 1_555
H1I C2I 1_555 1_555
N2I_2 C2I 1_555 1_555
H1EA C2EA 1_555 1_555
Fe1_2 N2J_2 1_555 1_555
Fe1A_2 N2I_2 1_555 1_555
C6V S1 1_555 1_555
C7V C6V 1_555 1_555
C2V C3V 1_555 1_555
C5A N3B 1_555 1_555
C2W N2B 1_555 1_555
C2U N2A 1_555 1_555
C3FA C4K 1_555 1_555
C5I N3J 1_555 1_555
C2DA N2J_2 1_555 1_555
C2EA N2I_2 1_555 1_555

#END
