
#######################################################################
#
#                 Cambridge Crystallographic Data Centre
#                                CCDC 
#
#######################################################################
#
# If this CIF has been generated from an entry in the Cambridge 
# Structural Database, then it will include bibliographic, chemical, 
# crystal, experimental, refinement or atomic coordinate data resulting 
# from the CCDC's data processing and validation procedures.
#
#######################################################################

data_YOYWUG
_symmetry_cell_setting           monoclinic
_symmetry_space_group_name_H-M   'P 21/c'
_symmetry_Int_Tables_number      14
_space_group_name_Hall           '-P 2ybc'
loop_
_symmetry_equiv_pos_site_id
_symmetry_equiv_pos_as_xyz
1 x,y,z
2 -x,1/2+y,1/2-z
3 -x,-y,-z
4 x,1/2-y,1/2+z
_cell_length_a                   13.8531(3)
_cell_length_b                   13.3127(2)
_cell_length_c                   17.1303(4)
_cell_angle_alpha                90
_cell_angle_beta                 94.337(2)
_cell_angle_gamma                90
_cell_volume                     3150.16
loop_
_atom_site_label
_atom_site_type_symbol
_atom_site_fract_x
_atom_site_fract_y
_atom_site_fract_z
Zn1 Zn 0.68957(5) 0.65482(4) 0.08745(4)
N1 N 0.6953(4) 0.5166(3) 0.1322(3)
N2 N 0.6938(4) 0.3516(3) 0.1345(3)
N3 N 0.6175(4) -0.1198(3) 0.3470(3)
N4 N 0.6780(4) -0.1398(3) 0.4691(3)
O1 O 0.5797(3) 0.7389(3) 0.1160(3)
O2 O 0.4916(3) 0.6080(3) 0.0734(3)
O3 O 0.7973(3) 0.7553(3) 0.0911(3)
O4 O 0.8050(4) 0.7002(3) 0.2127(3)
C1 C 0.4088(4) 0.7575(4) 0.0980(3)
C2 C 0.3213(5) 0.7103(4) 0.1086(3)
H1 H 0.3198 0.6423 0.1209
C3 C 0.2363(5) 0.7652(5) 0.1006(3)
C4 C 0.2363(5) 0.8664(5) 0.0805(4)
H2 H 0.1789 0.9027 0.0743
C5 C 0.3241(5) 0.9113(4) 0.0702(4)
C6 C 0.4100(5) 0.8593(4) 0.0804(4)
H3 H 0.4685 0.8922 0.0755
C7 C 0.5001(5) 0.6952(4) 0.0967(4)
C8 C 0.8966(4) 0.8460(4) 0.1861(3)
C9 C 0.9151(4) 0.9210(4) 0.1334(3)
H4 H 0.8886 0.9183 0.0819
C10 C 0.9742(4) 1.0005(4) 0.1591(4)
C11 C 1.0153(4) 1.0063(4) 0.2347(4)
H5 H 1.0556 1.0596 0.2506
C12 C 0.9950(4) 0.9306(4) 0.2861(3)
C13 C 0.9362(4) 0.8503(4) 0.2630(4)
H6 H 0.9234 0.8000 0.2984
C14 C 0.8280(4) 0.7599(4) 0.1618(4)
C15 C 0.7240(5) 0.4833(4) 0.2064(4)
H7 H 0.7412 0.5245 0.2490
C16 C 0.7236(5) 0.3826(4) 0.2082(3)
H8 H 0.7403 0.3420 0.2513
C17 C 0.6783(4) 0.4339(4) 0.0902(4)
H9 H 0.6582 0.4331 0.0372
C18 C 0.6989(6) 0.2490(4) 0.1022(4)
H10 H 0.7657 0.2341 0.0932
H11 H 0.6616 0.2469 0.0519
C19 C 0.6613(5) 0.1682(4) 0.1547(3)
C20 C 0.7254(5) 0.1014(5) 0.1903(4)
H12 H 0.7915 0.1102 0.1869
C21 C 0.6917(6) 0.0203(5) 0.2315(4)
H13 H 0.7358 -0.0263 0.2534
C22 C 0.5951(5) 0.0074(4) 0.2409(3)
C23 C 0.5325(5) 0.0793(5) 0.2091(5)
H14 H 0.4670 0.0746 0.2169
C24 C 0.5646(6) 0.1577(5) 0.1661(5)
H15 H 0.5204 0.2044 0.1444
C25 C 0.5559(5) -0.0848(5) 0.2807(4)
H16 H 0.4926 -0.0689 0.2981
H17 H 0.5475 -0.1387 0.2427
C26 C 0.6995(6) -0.1796(5) 0.3456(4)
H18 H 0.7246 -0.2070 0.3015
C27 C 0.7354(5) -0.1901(5) 0.4195(4)
H19 H 0.7911 -0.2260 0.4354
C28 C 0.6078(5) -0.0989(4) 0.4226(3)
H20 H 0.5578 -0.0604 0.4403
I1 I 0.10533(4) 0.69133(4) 0.11605(3)
I2 I 0.32314(5) 1.05932(4) 0.02962(5)
I3 I 0.99681(4) 1.11953(3) 0.08103(3)
I4 I 1.05030(4) 0.93714(4) 0.40336(3)
Zn1C Zn 0.68957(5) -0.15482(4) 0.58745(4)
N4C N 0.6780(4) 0.6398(3) -0.0309(3)
loop_
_geom_bond_atom_site_label_1
_geom_bond_atom_site_label_2
_geom_bond_site_symmetry_1
_geom_bond_site_symmetry_2
Zn1 N1 1_555 1_555
N1 C15 1_555 1_555
N2 C16 1_555 1_555
N3 C25 1_555 1_555
N4 C27 1_555 1_555
O1 Zn1 1_555 1_555
O2 C7 1_555 1_555
O3 Zn1 1_555 1_555
O4 C14 1_555 1_555
C1 C2 1_555 1_555
C2 H1 1_555 1_555
C3 C2 1_555 1_555
C4 C3 1_555 1_555
H2 C4 1_555 1_555
C5 C4 1_555 1_555
C6 C1 1_555 1_555
H3 C6 1_555 1_555
C7 O1 1_555 1_555
C8 C9 1_555 1_555
C9 H4 1_555 1_555
C10 C9 1_555 1_555
C11 C10 1_555 1_555
H5 C11 1_555 1_555
C12 C11 1_555 1_555
C13 C8 1_555 1_555
H6 C13 1_555 1_555
C14 O3 1_555 1_555
C15 H7 1_555 1_555
C16 C15 1_555 1_555
H8 C16 1_555 1_555
C17 N1 1_555 1_555
H9 C17 1_555 1_555
C18 N2 1_555 1_555
H10 C18 1_555 1_555
H11 C18 1_555 1_555
C19 C18 1_555 1_555
C20 C19 1_555 1_555
H12 C20 1_555 1_555
C21 C20 1_555 1_555
H13 C21 1_555 1_555
C22 C21 1_555 1_555
C23 C22 1_555 1_555
H14 C23 1_555 1_555
C24 C19 1_555 1_555
H15 C24 1_555 1_555
C25 C22 1_555 1_555
H16 C25 1_555 1_555
H17 C25 1_555 1_555
C26 N3 1_555 1_555
H18 C26 1_555 1_555
C27 C26 1_555 1_555
H19 C27 1_555 1_555
C28 N3 1_555 1_555
H20 C28 1_555 1_555
I1 C3 1_555 1_555
I2 C5 1_555 1_555
I3 C10 1_555 1_555
I4 C12 1_555 1_555
Zn1C N4 1_555 1_555
N4C Zn1 1_555 1_555
N2 C17 1_555 1_555
N4 C28 1_555 1_555
C1 C7 1_555 1_555
C5 C6 1_555 1_555
C8 C14 1_555 1_555
C12 C13 1_555 1_555
C23 C24 1_555 1_555

#END
