
#######################################################################
#
#                 Cambridge Crystallographic Data Centre
#                                CCDC 
#
#######################################################################
#
# If this CIF has been generated from an entry in the Cambridge 
# Structural Database, then it will include bibliographic, chemical, 
# crystal, experimental, refinement or atomic coordinate data resulting 
# from the CCDC's data processing and validation procedures.
#
#######################################################################

data_YOYYAO
_symmetry_cell_setting           triclinic
_symmetry_space_group_name_H-M   'P -1'
_symmetry_Int_Tables_number      2
_space_group_name_Hall           '-P 1'
loop_
_symmetry_equiv_pos_site_id
_symmetry_equiv_pos_as_xyz
1 x,y,z
2 -x,-y,-z
_cell_length_a                   9.4905(5)
_cell_length_b                   13.5520(7)
_cell_length_c                   14.2344(10)
_cell_angle_alpha                71.940(5)
_cell_angle_beta                 79.842(5)
_cell_angle_gamma                86.614(4)
_cell_volume                     1713.26
loop_
_atom_site_label
_atom_site_type_symbol
_atom_site_fract_x
_atom_site_fract_y
_atom_site_fract_z
Mn1 Mn 0.32716(12) 0.99380(9) 0.57334(10)
Mn2 Mn 0.0000 1.0000 0.5000
N1 N 0.3511(7) 1.1592(5) 0.5625(6)
O1 O 0.2855(6) 0.8463(4) 0.5716(5)
O2 O 0.0611(6) 0.8377(4) 0.5478(5)
O3 O 0.2185(6) 0.9516(5) 0.7319(5)
O4 O 0.0755(6) 1.0221(5) 0.6236(4)
O5 O 0.4551(6) 1.0443(4) 0.4035(4)
O6 O 0.2222(6) 1.0582(4) 0.4215(4)
I1 I 0.48179(8) 0.47196(6) 0.78667(6)
I2 I -0.07907(9) 0.41186(6) 0.67502(9)
I3 I -0.10934(11) 0.81400(7) 1.11360(6)
I4 I -0.42021(11) 1.14682(11) 0.83681(8)
I5 I 0.69281(8) 1.31415(9) 0.02684(6)
I6 I 0.06047(8) 1.37774(6) 0.10361(6)
C1 C 0.1824(8) 0.6813(6) 0.6237(6)
C2 C 0.2986(9) 0.6411(6) 0.6703(6)
H1 H 0.3708 0.6843 0.6707
C3 C 0.3049(9) 0.5348(7) 0.7163(7)
C4 C 0.1995(10) 0.4701(6) 0.7162(8)
H2 H 0.2053 0.3989 0.7467
C5 C 0.0854(10) 0.5125(6) 0.6702(8)
C6 C 0.0747(9) 0.6173(6) 0.6226(7)
H3 H -0.0028 0.6444 0.5907
C7 C 0.1755(8) 0.7973(6) 0.5766(7)
C8 C -0.0234(9) 0.9787(7) 0.7964(7)
C9 C -0.0127(10) 0.9155(7) 0.8919(7)
H4 H 0.0676 0.8737 0.9036
C10 C -0.1225(12) 0.9151(9) 0.9699(7)
C11 C -0.2404(12) 0.9796(9) 0.9553(8)
H5 H -0.3131 0.9803 1.0082
C12 C -0.2459(11) 1.0426(9) 0.8597(8)
C13 C -0.1417(10) 1.0421(8) 0.7792(8)
H6 H -0.1506 1.0834 0.7148
C14 C 0.0973(10) 0.9832(8) 0.7126(7)
C15 C 0.3543(8) 1.1640(6) 0.2690(6)
C16 C 0.2310(9) 1.2170(6) 0.2394(6)
H7 H 0.1420 1.2000 0.2796
C17 C 0.2440(9) 1.2949(7) 0.1495(7)
C18 C 0.3733(10) 1.3218(8) 0.0878(7)
H8 H 0.3797 1.3743 0.0270
C19 C 0.4941(9) 1.2683(8) 0.1190(7)
C20 C 0.4864(9) 1.1891(7) 0.2077(6)
H9 H 0.5684 1.1529 0.2264
C21 C 0.3415(8) 1.0827(6) 0.3693(6)
C22 C 0.4669(10) 1.1898(7) 0.5856(7)
H10 H 0.5302 1.1390 0.6142
C23 C 0.4999(9) 1.2924(7) 0.5700(7)
H11 H 0.5816 1.3093 0.5895
C24 C 0.4089(9) 1.3697(6) 0.5248(7)
C25 C 0.2836(11) 1.3373(7) 0.5055(9)
H12 H 0.2156 1.3858 0.4800
C26 C 0.2607(11) 1.2334(7) 0.5242(9)
H13 H 0.1770 1.2138 0.5093
C27 C 0.4383(10) 1.4797(7) 0.5003(7)
H14 H 0.3634 1.5256 0.4836
N1A N 0.6489(7) 1.8408(5) 0.4375(6)
C22A C 0.5331(10) 1.8102(7) 0.4144(7)
H10A H 0.4698 1.8610 0.3858
C23A C 0.5001(9) 1.7076(7) 0.4300(7)
H11A H 0.4184 1.6907 0.4105
C24A C 0.5911(9) 1.6303(6) 0.4752(7)
C25A C 0.7164(11) 1.6627(7) 0.4945(9)
H12A H 0.7844 1.6142 0.5200
C26A C 0.7393(11) 1.7666(7) 0.4758(9)
H13A H 0.8230 1.7862 0.4907
C27A C 0.5617(10) 1.5203(7) 0.4997(7)
H14A H 0.6366 1.4744 0.5164
Mn1A Mn -0.32716(12) 1.00620(9) 0.42666(10)
O1A O -0.2855(6) 1.1537(4) 0.4284(5)
O2A O -0.0611(6) 1.1623(4) 0.4522(5)
O3A O -0.2185(6) 1.0484(5) 0.2681(5)
O4A O -0.0755(6) 0.9779(5) 0.3764(4)
O5A O -0.4551(6) 0.9557(4) 0.5965(4)
O6A O -0.2222(6) 0.9418(4) 0.5785(4)
I1A I -0.48179(8) 1.52804(6) 0.21333(6)
I2A I 0.07907(9) 1.58814(6) 0.32498(9)
I3A I 0.10934(11) 1.18600(7) -0.11360(6)
I4A I 0.42021(11) 0.85318(11) 0.16319(8)
I5A I -0.69281(8) 0.68585(9) 0.97316(6)
I6A I -0.06047(8) 0.62226(6) 0.89639(6)
C1A C -0.1824(8) 1.3187(6) 0.3763(6)
C2A C -0.2986(9) 1.3589(6) 0.3297(6)
H1A H -0.3708 1.3157 0.3293
C3A C -0.3049(9) 1.4652(7) 0.2837(7)
C4A C -0.1995(10) 1.5299(6) 0.2838(8)
H2A H -0.2053 1.6011 0.2533
C5A C -0.0854(10) 1.4875(6) 0.3298(8)
C6A C -0.0747(9) 1.3827(6) 0.3774(7)
H3A H 0.0028 1.3556 0.4093
C7A C -0.1755(8) 1.2027(6) 0.4234(7)
C8A C 0.0234(9) 1.0213(7) 0.2036(7)
C9A C 0.0127(10) 1.0845(7) 0.1081(7)
H4A H -0.0676 1.1263 0.0964
C10A C 0.1225(12) 1.0849(9) 0.0301(7)
C11A C 0.2404(12) 1.0204(9) 0.0447(8)
H5A H 0.3131 1.0197 -0.0082
C12A C 0.2459(11) 0.9574(9) 0.1403(8)
C13A C 0.1417(10) 0.9579(8) 0.2208(8)
H6A H 0.1506 0.9166 0.2852
C14A C -0.0973(10) 1.0168(8) 0.2874(7)
C15A C -0.3543(8) 0.8360(6) 0.7310(6)
C16A C -0.2310(9) 0.7830(6) 0.7606(6)
H7A H -0.1420 0.8000 0.7204
C17A C -0.2440(9) 0.7051(7) 0.8505(7)
C18A C -0.3733(10) 0.6782(8) 0.9122(7)
H8A H -0.3797 0.6257 0.9730
C19A C -0.4941(9) 0.7317(8) 0.8810(7)
C20A C -0.4864(9) 0.8109(7) 0.7923(6)
H9A H -0.5684 0.8471 0.7736
C21A C -0.3415(8) 0.9173(6) 0.6307(6)
Mn1_2 Mn -0.67284(12) 0.99380(9) 0.57334(10)
Mn1A_2 Mn 0.67284(12) 1.00620(9) 0.42666(10)
Mn1A_3 Mn 0.67284(12) 2.00620(9) 0.42666(10)
N1A_2 N -0.3511(7) 0.8408(5) 0.4375(6)
O5_2 O -0.5449(6) 1.0443(4) 0.4035(4)
O5A_2 O 0.5449(6) 0.9557(4) 0.5965(4)
loop_
_geom_bond_atom_site_label_1
_geom_bond_atom_site_label_2
_geom_bond_site_symmetry_1
_geom_bond_site_symmetry_2
Mn1 N1 1_555 1_555
Mn2 O2 1_555 1_555
N1 C22 1_555 1_555
O1 Mn1 1_555 1_555
O2 C7 1_555 1_555
O3 Mn1 1_555 1_555
O4 Mn1 1_555 1_555
O5 Mn1 1_555 1_555
O6 Mn1 1_555 1_555
I1 C3 1_555 1_555
I2 C5 1_555 1_555
I3 C10 1_555 1_555
I4 C12 1_555 1_555
I5 C19 1_555 1_555
I6 C17 1_555 1_555
C1 C2 1_555 1_555
C2 H1 1_555 1_555
C3 C2 1_555 1_555
C4 C3 1_555 1_555
H2 C4 1_555 1_555
C5 C4 1_555 1_555
C6 C1 1_555 1_555
H3 C6 1_555 1_555
C7 O1 1_555 1_555
C8 C9 1_555 1_555
C9 H4 1_555 1_555
C10 C9 1_555 1_555
C11 C10 1_555 1_555
H5 C11 1_555 1_555
C12 C11 1_555 1_555
C13 C8 1_555 1_555
H6 C13 1_555 1_555
C14 O3 1_555 1_555
C15 C16 1_555 1_555
C16 H7 1_555 1_555
C17 C16 1_555 1_555
C18 C17 1_555 1_555
H8 C18 1_555 1_555
C19 C18 1_555 1_555
C20 C15 1_555 1_555
H9 C20 1_555 1_555
C21 O5 1_555 1_555
C22 H10 1_555 1_555
C23 C22 1_555 1_555
H11 C23 1_555 1_555
C24 C23 1_555 1_555
C25 C24 1_555 1_555
H12 C25 1_555 1_555
C26 N1 1_555 1_555
H13 C26 1_555 1_555
C27 C24 1_555 1_555
H14 C27 1_555 1_555
N1A C22A 1_555 1_555
C22A H10A 1_555 1_555
C23A C22A 1_555 1_555
H11A C23A 1_555 1_555
C24A C23A 1_555 1_555
C25A C24A 1_555 1_555
H12A C25A 1_555 1_555
C26A N1A 1_555 1_555
H13A C26A 1_555 1_555
C27A C27 1_555 1_555
H14A C27A 1_555 1_555
Mn1A O1A 1_555 1_555
O1A C7A 1_555 1_555
O2A Mn2 1_555 1_555
O3A Mn1A 1_555 1_555
O4A Mn2 1_555 1_555
O5A Mn1A 1_555 1_555
O6A Mn2 1_555 1_555
I1A C3A 1_555 1_555
I2A C5A 1_555 1_555
I3A C10A 1_555 1_555
I4A C12A 1_555 1_555
I5A C19A 1_555 1_555
I6A C17A 1_555 1_555
C1A C2A 1_555 1_555
C2A H1A 1_555 1_555
C3A C2A 1_555 1_555
C4A C3A 1_555 1_555
H2A C4A 1_555 1_555
C5A C4A 1_555 1_555
C6A C1A 1_555 1_555
H3A C6A 1_555 1_555
C7A O2A 1_555 1_555
C8A C9A 1_555 1_555
C9A H4A 1_555 1_555
C10A C9A 1_555 1_555
C11A C10A 1_555 1_555
H5A C11A 1_555 1_555
C12A C11A 1_555 1_555
C13A C8A 1_555 1_555
H6A C13A 1_555 1_555
C14A O3A 1_555 1_555
C15A C16A 1_555 1_555
C16A H7A 1_555 1_555
C17A C16A 1_555 1_555
C18A C17A 1_555 1_555
H8A C18A 1_555 1_555
C19A C18A 1_555 1_555
C20A C15A 1_555 1_555
H9A C20A 1_555 1_555
C21A O5A 1_555 1_555
Mn1_2 O5A 1_555 1_555
Mn1A_2 O5 1_555 1_555
Mn1A_3 N1A 1_555 1_555
N1A_2 Mn1A 1_555 1_555
O5_2 Mn1A 1_555 1_555
O5A_2 Mn1 1_555 1_555
Mn2 O4 1_555 1_555
Mn2 O6 1_555 1_555
O4 C14 1_555 1_555
O6 C21 1_555 1_555
C1 C7 1_555 1_555
C5 C6 1_555 1_555
C8 C14 1_555 1_555
C12 C13 1_555 1_555
C15 C21 1_555 1_555
C19 C20 1_555 1_555
C25 C26 1_555 1_555
C24A C27A 1_555 1_555
C25A C26A 1_555 1_555
Mn1A O4A 1_555 1_555
Mn1A O6A 1_555 1_555
O4A C14A 1_555 1_555
O6A C21A 1_555 1_555
C1A C7A 1_555 1_555
C5A C6A 1_555 1_555
C8A C14A 1_555 1_555
C12A C13A 1_555 1_555
C15A C21A 1_555 1_555
C19A C20A 1_555 1_555
Mn1_2 O5_2 1_555 1_555
Mn1A_2 O5A_2 1_555 1_555

#END
