
#######################################################################
#
#                 Cambridge Crystallographic Data Centre
#                                CCDC 
#
#######################################################################
#
# If this CIF has been generated from an entry in the Cambridge 
# Structural Database, then it will include bibliographic, chemical, 
# crystal, experimental, refinement or atomic coordinate data resulting 
# from the CCDC's data processing and validation procedures.
#
#######################################################################

data_YOYZET
_symmetry_cell_setting           monoclinic
_symmetry_space_group_name_H-M   'C 2'
_symmetry_Int_Tables_number      5
_space_group_name_Hall           'C 2y'
loop_
_symmetry_equiv_pos_site_id
_symmetry_equiv_pos_as_xyz
1 x,y,z
2 -x,y,-z
3 1/2+x,1/2+y,z
4 1/2-x,1/2+y,-z
_cell_length_a                   26.604(5)
_cell_length_b                   18.113(4)
_cell_length_c                   18.925(4)
_cell_angle_alpha                90
_cell_angle_beta                 118.24(3)
_cell_angle_gamma                90
_cell_volume                     8034.08
loop_
_atom_site_label
_atom_site_type_symbol
_atom_site_fract_x
_atom_site_fract_y
_atom_site_fract_z
Co1 Co -0.00352(4) 1.08090(8) 0.77893(6)
B1 B 0.0276(5) 0.9513(8) 0.6893(7)
H1 H 0.0388 0.9126 0.6617
N1 N 0.0554(4) 0.9931(5) 0.8349(5)
N2 N 0.0613(4) 0.9428(5) 0.7819(5)
C1 C 0.0909(6) 0.9652(6) 0.9039(7)
H2 H 0.0998 0.9911 0.9521
C2 C 0.0984(5) 0.8884(7) 0.8268(7)
H3 H 0.1110 0.8488 0.8063
N3 N 0.1144(5) 0.9005(5) 0.9064(6)
N4 N -0.0578(4) 0.9942(5) 0.6988(5)
N5 N -0.0331(5) 0.9465(5) 0.6661(5)
C3 C -0.1106(7) 0.9737(6) 0.6637(7)
H4 H -0.1384 1.0000 0.6716
C4 C -0.0745(5) 0.9007(6) 0.6170(7)
H5 H -0.0689 0.8631 0.5865
N6 N -0.1252(4) 0.9135(5) 0.6153(6)
N7 N 0.0299(3) 1.0883(6) 0.7005(4)
N8 N 0.0404(4) 1.0285(6) 0.6701(6)
C5 C 0.0427(6) 1.1452(10) 0.6647(7)
H6 H 0.0380 1.1954 0.6750
C6 C 0.0568(6) 1.0523(13) 0.6134(7)
H7 H 0.0634 1.0204 0.5787
N9 N 0.0620(6) 1.1256(11) 0.6146(8)
B2 B -0.0387(5) 1.2130(7) 0.8573(6)
H8 H -0.0509 1.2540 0.8811
N10 N -0.0638(4) 1.1654(5) 0.7187(5)
N11 N -0.0700(4) 1.2185(4) 0.7657(4)
C7 C -0.0949(5) 1.1904(6) 0.6439(7)
H9 H -0.1006 1.1633 0.5977
C8 C -0.1024(6) 1.2740(6) 0.7176(6)
H10 H -0.1127 1.3175 0.7356
N12 N -0.1178(4) 1.2581(6) 0.6405(6)
N13 N 0.0507(5) 1.1678(5) 0.8565(5)
N14 N 0.0254(4) 1.2185(4) 0.8852(5)
C9 C 0.1016(6) 1.1937(6) 0.8831(6)
H11 H 0.1299 1.1667 0.8770
C10 C 0.0642(5) 1.2725(6) 0.9228(6)
H12 H 0.0583 1.3142 0.9482
N15 N 0.1133(4) 1.2582(5) 0.9188(6)
N16 N -0.0383(3) 1.0772(5) 0.8563(4)
N17 N -0.0514(4) 1.1387(5) 0.8830(4)
C11 C -0.0539(4) 1.0219(6) 0.8882(5)
H13 H -0.0498 0.9711 0.8794
C12 C -0.0756(5) 1.1199(8) 0.9308(6)
H14 H -0.0893 1.1536 0.9562
N18 N -0.0765(4) 1.0472(6) 0.9353(6)
Cu1 Cu 0.19695(5) 0.85002(5) 0.97582(6)
Cu2 Cu 0.30583(5) 0.81547(6) 1.03345(6)
O1 O 0.2171(4) 0.8923(4) 0.8938(4)
O2 O 0.3095(4) 0.8770(4) 0.9512(4)
C13 C 0.2657(6) 0.8993(6) 0.8981(6)
C14 C 0.2631(6) 0.9416(6) 0.8274(6)
C15 C 0.2164(8) 0.9980(12) 0.7919(12)
C16 C 0.3157(12) 0.9785(16) 0.8533(16)
C17 C 0.2539(10) 0.8941(6) 0.7558(8)
C18 C 0.1822(11) 0.8685(14) 0.7066(10)
H15 H 0.1742 0.8355 0.7411
H16 H 0.1738 0.8429 0.6566
H17 H 0.1582 0.9126 0.6944
C19 C 0.2719(7) 0.8246(10) 0.7677(10)
O3 O 0.2308(5) 0.9360(4) 1.0459(5)
O4 O 0.3205(4) 0.9041(4) 1.0994(4)
C20 C 0.2819(7) 0.9481(6) 1.0898(6)
C21 C 0.2949(6) 1.0180(5) 1.1369(5)
H18 H 0.3321 1.0116 1.1868
C22 C 0.2495(9) 1.0452(7) 1.1615(9)
H19 H 0.2117 1.0236 1.1257
H20 H 0.2607 1.0305 1.2174
C23 C 0.3005(6) 1.0819(7) 1.0903(6)
C24 C 0.2526(7) 1.0815(7) 1.0009(5)
H21 H 0.2153 1.0771 0.9990
H22 H 0.2584 1.0395 0.9729
H23 H 0.2542 1.1275 0.9749
C25 C 0.3610(8) 1.0838(12) 1.0925(14)
H24 H 0.3635 1.0431 1.0601
H25 H 0.3913 1.0785 1.1480
H26 H 0.3656 1.1309 1.0708
O5 O -0.1984(4) 0.7976(4) 0.9327(4)
O6 O -0.2895(3) 0.7634(4) 0.8892(4)
C26 C -0.2447(6) 0.7651(5) 0.8845(6)
C27 C -0.2409(7) 0.7258(5) 0.8136(6)
C28 C -0.1829(8) 0.6966(9) 0.8319(9)
H27 H -0.1760 0.6465 0.8555
H28 H -0.1518 0.7301 0.8674
C29 C -0.2673(7) 0.7782(9) 0.7361(10)
C30 C -0.2486(6) 0.8514(8) 0.7494(8)
C31 C -0.3315(9) 0.7874(11) 0.6969(15)
O7 O 0.3228(3) 1.2575(4) 1.0849(4)
O8 O 0.2302(3) 1.2383(4) 1.0466(4)
C32 C 0.2829(6) 1.2242(6) 1.0874(6)
C33 C 0.3005(6) 1.1524(6) 1.1387(6)
C34 C 0.3489(7) 1.1678(7) 1.2143(7)
H29 H 0.3790 1.1903 1.2056
H30 H 0.3631 1.1217 1.2445
H31 H 0.3379 1.2018 1.2448
C35 C 0.2475(8) 1.1256(7) 1.1542(8)
H32 H 0.2510 1.1484 1.2039
H33 H 0.2106 1.1411 1.1088
Cu3 Cu -0.20283(6) 0.86262(7) 0.53850(7)
Cu4 Cu -0.30832(6) 0.81690(7) 0.44980(6)
O9 O -0.2399(4) 0.9408(4) 0.5616(4)
O10 O -0.3318(3) 0.9109(4) 0.4761(4)
C36 C -0.2937(8) 0.9553(6) 0.5269(7)
C37 C -0.3169(6) 1.0267(6) 0.5503(8)
C38 C -0.2681(11) 1.0587(11) 0.6334(9)
H34 H -0.2681 1.0331 0.6796
H35 H -0.2300 1.0537 0.6369
C39 C -0.3721(8) 1.0101(11) 0.5467(15)
H36 H -0.4023 1.0113 0.4908
H37 H -0.3803 1.0471 0.5778
H38 H -0.3707 0.9610 0.5692
C40 C -0.3214(7) 1.0912(8) 0.4956(7)
C41 C -0.2713(9) 1.0930(8) 0.4747(9)
H39 H -0.2370 1.0722 0.5194
H40 H -0.2639 1.1442 0.4655
H41 H -0.2816 1.0639 0.4262
C42 C -0.3753(9) 1.0993(16) 0.4253(12)
H42 H -0.3776 1.1483 0.4020
H43 H -0.4060 1.0940 0.4396
H44 H -0.3793 1.0613 0.3862
O11 O -0.2110(4) 0.7999(4) 0.6192(4)
O12 O -0.3037(4) 0.7737(4) 0.5455(4)
C43 C -0.2575(6) 0.7697(5) 0.6086(7)
C44 C -0.2545(6) 0.7285(6) 0.6810(6)
C45 C -0.1919(9) 0.6963(10) 0.7420(11)
H45 H -0.1882 0.6452 0.7263
H46 H -0.1621 0.7270 0.7391
C46 C -0.2981(9) 0.6739(11) 0.6583(13)
H47 H -0.3124 0.6731 0.6975
H48 H -0.2824 0.6254 0.6567
H49 H -0.3295 0.6858 0.6051
O13 O -0.3289(4) 1.2760(5) 0.4878(6)
O14 O -0.2407(4) 1.2343(5) 0.5580(4)
C47 C -0.2946(6) 1.2280(7) 0.5294(6)
C48 C -0.3153(6) 1.1591(7) 0.5480(7)
H50 H -0.3546 1.1701 0.5395
C49 C -0.2832(12) 1.1325(8) 0.6309(9)
H51 H -0.2483 1.1626 0.6600
H52 H -0.3068 1.1384 0.6582
O15 O 0.2150(3) 0.9123(4) 0.5624(4)
O16 O 0.3038(4) 0.8683(5) 0.6375(4)
C50 C 0.2593(6) 0.9053(6) 0.6261(6)
C51 C 0.2654(6) 0.9445(6) 0.7008(6)
H53 H 0.2369 0.9856 0.6833
C52 C 0.3275(8) 0.9797(11) 0.7489(12)
N12C N -0.3822(4) 0.7581(6) 0.3595(6)
N15C N 0.3867(4) 0.7582(5) 1.0812(6)
Cu1A Cu -0.19695(5) 0.85002(5) 1.02418(6)
Cu1C Cu 0.30305(5) 1.35002(5) 1.02418(6)
Cu2A Cu -0.30583(5) 0.81547(6) 0.96655(6)
Cu2C Cu 0.19417(5) 1.31547(6) 0.96655(6)
O5A O 0.1984(4) 0.7976(4) 1.0673(4)
O6A O 0.2895(3) 0.7634(4) 1.1108(4)
O7C O 0.1772(3) 0.7575(4) 0.9151(4)
O8C O 0.2698(3) 0.7383(4) 0.9534(4)
Cu3A Cu 0.20283(6) 0.86262(7) 0.46150(7)
Cu3C Cu -0.29717(6) 1.36262(7) 0.46150(7)
Cu4A Cu 0.30832(6) 0.81690(7) 0.55020(6)
Cu4C Cu -0.19168(6) 1.31690(7) 0.55020(6)
O13C O -0.1711(4) 0.7760(5) 0.5122(6)
O14C O -0.2593(4) 0.7343(5) 0.4420(4)
O15A O -0.2150(3) 0.9123(4) 0.4376(4)
O16A O -0.3038(4) 0.8683(5) 0.3625(4)
loop_
_geom_bond_atom_site_label_1
_geom_bond_atom_site_label_2
_geom_bond_site_symmetry_1
_geom_bond_site_symmetry_2
Co1 N1 1_555 1_555
B1 H1 1_555 1_555
N1 N2 1_555 1_555
N2 B1 1_555 1_555
C1 N1 1_555 1_555
H2 C1 1_555 1_555
C2 N2 1_555 1_555
H3 C2 1_555 1_555
N3 C1 1_555 1_555
N4 Co1 1_555 1_555
N5 B1 1_555 1_555
C3 N4 1_555 1_555
H4 C3 1_555 1_555
C4 N5 1_555 1_555
H5 C4 1_555 1_555
N6 C3 1_555 1_555
N7 Co1 1_555 1_555
N8 B1 1_555 1_555
C5 N7 1_555 1_555
H6 C5 1_555 1_555
C6 N8 1_555 1_555
H7 C6 1_555 1_555
N9 C5 1_555 1_555
B2 H8 1_555 1_555
N10 Co1 1_555 1_555
N11 B2 1_555 1_555
C7 N10 1_555 1_555
H9 C7 1_555 1_555
C8 N11 1_555 1_555
H10 C8 1_555 1_555
N12 C7 1_555 1_555
N13 Co1 1_555 1_555
N14 B2 1_555 1_555
C9 N13 1_555 1_555
H11 C9 1_555 1_555
C10 N14 1_555 1_555
H12 C10 1_555 1_555
N15 C9 1_555 1_555
N16 Co1 1_555 1_555
N17 B2 1_555 1_555
C11 N16 1_555 1_555
H13 C11 1_555 1_555
C12 N17 1_555 1_555
H14 C12 1_555 1_555
N18 C11 1_555 1_555
Cu1 N3 1_555 1_555
Cu2 Cu1 1_555 1_555
O1 Cu1 1_555 1_555
O2 Cu2 1_555 1_555
C13 O1 1_555 1_555
C14 C13 1_555 1_555
C15 C14 1_555 1_555
C16 C14 1_555 1_555
C17 C14 1_555 1_555
C18 C17 1_555 1_555
H15 C18 1_555 1_555
H16 C18 1_555 1_555
H17 C18 1_555 1_555
C19 C17 1_555 1_555
O3 Cu1 1_555 1_555
O4 Cu2 1_555 1_555
C20 O3 1_555 1_555
C21 C20 1_555 1_555
H18 C21 1_555 1_555
C22 C21 1_555 1_555
H19 C22 1_555 1_555
H20 C22 1_555 1_555
C23 C21 1_555 1_555
C24 C23 1_555 1_555
H21 C24 1_555 1_555
H22 C24 1_555 1_555
H23 C24 1_555 1_555
C25 C23 1_555 1_555
H24 C25 1_555 1_555
H25 C25 1_555 1_555
H26 C25 1_555 1_555
O5 C26 1_555 1_555
O6 C26 1_555 1_555
C26 C27 1_555 1_555
C27 C28 1_555 1_555
C28 H27 1_555 1_555
H28 C28 1_555 1_555
C29 C27 1_555 1_555
C30 C29 1_555 1_555
C31 C29 1_555 1_555
O7 C32 1_555 1_555
O8 C32 1_555 1_555
C32 C33 1_555 1_555
C33 C23 1_555 1_555
C34 C33 1_555 1_555
H29 C34 1_555 1_555
H30 C34 1_555 1_555
H31 C34 1_555 1_555
C35 C22 1_555 1_555
H32 C35 1_555 1_555
H33 C35 1_555 1_555
Cu3 N6 1_555 1_555
Cu4 Cu3 1_555 1_555
O9 Cu3 1_555 1_555
O10 Cu4 1_555 1_555
C36 O9 1_555 1_555
C37 C36 1_555 1_555
C38 C37 1_555 1_555
H34 C38 1_555 1_555
H35 C38 1_555 1_555
C39 C37 1_555 1_555
H36 C39 1_555 1_555
H37 C39 1_555 1_555
H38 C39 1_555 1_555
C40 C37 1_555 1_555
C41 C40 1_555 1_555
H39 C41 1_555 1_555
H40 C41 1_555 1_555
H41 C41 1_555 1_555
C42 C40 1_555 1_555
H42 C42 1_555 1_555
H43 C42 1_555 1_555
H44 C42 1_555 1_555
O11 Cu3 1_555 1_555
O12 Cu4 1_555 1_555
C43 O11 1_555 1_555
C44 C29 1_555 1_555
C45 C28 1_555 1_555
H45 C45 1_555 1_555
H46 C45 1_555 1_555
C46 C44 1_555 1_555
H47 C46 1_555 1_555
H48 C46 1_555 1_555
H49 C46 1_555 1_555
O13 C47 1_555 1_555
O14 C47 1_555 1_555
C47 C48 1_555 1_555
C48 C40 1_555 1_555
H50 C48 1_555 1_555
C49 C38 1_555 1_555
H51 C49 1_555 1_555
H52 C49 1_555 1_555
O15 C50 1_555 1_555
O16 C50 1_555 1_555
C50 C51 1_555 1_555
C51 C17 1_555 1_555
H53 C51 1_555 1_555
C52 C51 1_555 1_555
N12C Cu4 1_555 1_555
N15C Cu2 1_555 1_555
Cu1A O5 1_555 1_555
Cu1C O7 1_555 1_555
Cu2A O6 1_555 1_555
Cu2C N15 1_555 1_555
O5A Cu1 1_555 1_555
O6A Cu2 1_555 1_555
O7C Cu1 1_555 1_555
O8C Cu2 1_555 1_555
Cu3A O15 1_555 1_555
Cu3C O13 1_555 1_555
Cu4A O16 1_555 1_555
Cu4C N12 1_555 1_555
O13C Cu3 1_555 1_555
O14C Cu4 1_555 1_555
O15A Cu3 1_555 1_555
O16A Cu4 1_555 1_555
C2 N3 1_555 1_555
N4 N5 1_555 1_555
C4 N6 1_555 1_555
N7 N8 1_555 1_555
C6 N9 1_555 1_555
N10 N11 1_555 1_555
C8 N12 1_555 1_555
N13 N14 1_555 1_555
C10 N15 1_555 1_555
N16 N17 1_555 1_555
C12 N18 1_555 1_555
O2 C13 1_555 1_555
O4 C20 1_555 1_555
O8 Cu2C 1_555 1_555
C33 C35 1_555 1_555
O10 C36 1_555 1_555
O12 C43 1_555 1_555
C43 C44 1_555 1_555
C44 C45 1_555 1_555
O14 Cu4C 1_555 1_555
C48 C49 1_555 1_555
Cu1A Cu2A 1_555 1_555
Cu1C Cu2C 1_555 1_555
Cu3A Cu4A 1_555 1_555
Cu3C Cu4C 1_555 1_555

#END
