
#######################################################################
#
#                 Cambridge Crystallographic Data Centre
#                                CCDC 
#
#######################################################################
#
# If this CIF has been generated from an entry in the Cambridge 
# Structural Database, then it will include bibliographic, chemical, 
# crystal, experimental, refinement or atomic coordinate data resulting 
# from the CCDC's data processing and validation procedures.
#
#######################################################################

data_YOZDEY
_symmetry_cell_setting           triclinic
_symmetry_space_group_name_H-M   'P -1'
_symmetry_Int_Tables_number      2
_space_group_name_Hall           '-P 1'
loop_
_symmetry_equiv_pos_site_id
_symmetry_equiv_pos_as_xyz
1 x,y,z
2 -x,-y,-z
_cell_length_a                   11.9075(5)
_cell_length_b                   12.0382(5)
_cell_length_c                   19.6302(7)
_cell_angle_alpha                94.0100(10)
_cell_angle_beta                 94.0810(10)
_cell_angle_gamma                113.2690(10)
_cell_volume                     2563.65
loop_
_atom_site_label
_atom_site_type_symbol
_atom_site_fract_x
_atom_site_fract_y
_atom_site_fract_z
Cu1 Cu 0.56916(8) 0.18104(7) 0.30371(4)
Cu2 Cu 0.40386(8) 0.06780(8) 0.18847(4)
Cu3 Cu 0.34202(7) 0.00100(8) 0.31891(4)
Cu4 Cu 0.51665(9) -0.05423(8) 0.26309(4)
I1 I 0.27052(4) -0.16042(4) 0.20351(2)
I2 I 0.64682(4) 0.12633(4) 0.18913(2)
I3 I 0.54238(4) 0.00676(4) 0.39466(2)
I4 I 0.36232(4) 0.21529(4) 0.28338(2)
S1 S 0.54359(16) -0.22762(16) 0.22829(8)
S2 S 0.67610(16) -0.11467(17) -0.08880(8)
S3 S 1.19350(14) 0.90086(14) 0.38869(8)
S4 S 0.70121(16) 0.33631(15) 0.38367(8)
O1 O 0.8610(5) -0.1669(5) 0.1563(3)
O2 O 0.8591(4) -0.0096(5) 0.0549(2)
O3 O 0.4922(5) -0.3199(6) 0.0236(2)
O4 O 0.9023(4) 0.8637(4) 0.4361(2)
O5 O 0.7558(5) 0.6500(4) 0.4946(2)
O6 O 1.0336(4) 0.5969(4) 0.3805(2)
C1 C 0.9433(7) -0.1355(8) 0.1050(4)
H1 H 0.9060 -0.1905 0.0621
H2 H 1.0208 -0.1426 0.1207
C2 C 0.9683(6) -0.0057(8) 0.0927(4)
H3 H 0.9860 0.0460 0.1369
H4 H 1.0396 0.0276 0.0660
C3 C 0.8580(7) 0.0995(7) 0.0384(3)
C4 C 0.9549(8) 0.2112(7) 0.0554(4)
H5 H 1.0298 0.2177 0.0794
C5 C 0.9394(11) 0.3148(8) 0.0362(4)
H6 H 1.0053 0.3924 0.0467
C6 C 0.8327(12) 0.3060(9) 0.0031(5)
H7 H 0.8244 0.3776 -0.0090
C7 C 0.7353(9) 0.1950(8) -0.0135(4)
H8 H 0.6604 0.1911 -0.0361
C8 C 0.7458(7) 0.0889(7) 0.0024(3)
C9 C 0.6433(6) -0.0322(7) -0.0169(3)
H9 H 0.5666 -0.0214 -0.0297
H10 H 0.6308 -0.0801 0.0230
C10 C 0.5741(8) -0.2714(7) -0.0824(4)
H11 H 0.4881 -0.2798 -0.0912
H12 H 0.5882 -0.3242 -0.1188
C11 C 0.5900(9) -0.3175(8) -0.0123(4)
H13 H 0.5894 -0.4000 -0.0192
H14 H 0.6692 -0.2625 0.0138
C12 C 0.5016(8) -0.3413(8) 0.0940(3)
H15 H 0.5576 -0.3830 0.1018
H16 H 0.4198 -0.3933 0.1069
C13 C 0.5520(7) -0.2175(7) 0.1371(3)
H17 H 0.5053 -0.1703 0.1213
H18 H 0.6389 -0.1725 0.1292
C14 C 0.6990(6) -0.2111(6) 0.2553(3)
H19 H 0.7581 -0.1309 0.2450
H20 H 0.7084 -0.2138 0.3056
C15 C 0.7285(6) -0.3093(6) 0.2200(3)
C16 C 0.6679(7) -0.4299(7) 0.2335(4)
H21 H 0.6117 -0.4480 0.2673
C17 C 0.6877(9) -0.5228(7) 0.1994(4)
H22 H 0.6448 -0.6042 0.2090
C18 C 0.7700(9) -0.4969(8) 0.1511(4)
H23 H 0.7845 -0.5607 0.1274
C19 C 0.8316(8) -0.3791(8) 0.1368(4)
H24 H 0.8893 -0.3623 0.1039
C20 C 0.8105(7) -0.2845(7) 0.1699(3)
C21 C 0.8166(7) 0.8611(7) 0.4840(4)
H25 H 0.7345 0.8407 0.4591
H26 H 0.8434 0.9421 0.5103
C22 C 0.8094(7) 0.7683(6) 0.5318(4)
H27 H 0.8929 0.7839 0.5531
H28 H 0.7588 0.7734 0.5688
C23 C 0.6949(6) 0.5528(6) 0.5297(3)
C24 C 0.6988(7) 0.5598(7) 0.6012(4)
H29 H 0.7493 0.6334 0.6286
C25 C 0.6283(9) 0.4585(8) 0.6317(4)
H30 H 0.6321 0.4629 0.6803
C26 C 0.5533(9) 0.3518(8) 0.5932(5)
H31 H 0.5021 0.2841 0.6145
C27 C 0.5536(7) 0.3448(7) 0.5222(5)
H32 H 0.5042 0.2702 0.4953
C28 C 0.6238(6) 0.4432(7) 0.4898(4)
C29 C 0.6234(8) 0.4329(7) 0.4128(4)
H33 H 0.6651 0.5150 0.3981
H34 H 0.5374 0.3982 0.3911
C30 C 0.8356(7) 0.4434(7) 0.3498(4)
H35 H 0.8656 0.3994 0.3161
H36 H 0.8134 0.5029 0.3260
C31 C 0.9360(6) 0.5094(6) 0.4085(3)
H37 H 0.9048 0.5490 0.4439
H38 H 0.9637 0.4513 0.4300
C32 C 1.1312(6) 0.6680(7) 0.4318(4)
H39 H 1.1688 0.6163 0.4524
H40 H 1.0995 0.7041 0.4687
C33 C 1.2263(6) 0.7678(6) 0.3980(4)
H41 H 1.2333 0.7337 0.3519
H42 H 1.3071 0.7935 0.4255
C34 C 1.0450(6) 0.8426(6) 0.3360(3)
H43 H 1.0550 0.8205 0.2879
H44 H 0.9866 0.7691 0.3538
C35 C 0.9969(6) 0.9405(6) 0.3389(3)
C36 C 1.0230(6) 1.0235(7) 0.2905(4)
H45 H 1.0740 1.0198 0.2560
C37 C 0.9755(8) 1.1118(8) 0.2919(4)
H46 H 0.9937 1.1682 0.2585
C38 C 0.9013(7) 1.1174(7) 0.3422(4)
H47 H 0.8680 1.1773 0.3429
C39 C 0.8755(6) 1.0365(7) 0.3912(4)
H48 H 0.8253 1.0413 0.4258
C40 C 0.9232(6) 0.9478(6) 0.3898(3)
Cu2A Cu 0.59614(8) -0.06780(8) -0.18847(4)
Cu3_2 Cu 1.34202(7) 1.00100(8) 0.31891(4)
S2A S 0.32390(16) 0.11467(17) 0.08880(8)
S3_2 S 0.19350(14) -0.09914(14) 0.38869(8)
N1 N 0.7686(11) 0.5774(12) 0.8374(7)
C41 C 0.8369(16) 0.544(2) 0.8131(11)
C42 C 0.9457(12) 0.5119(13) 0.7897(7)
H49 H 1.0231 0.5841 0.7992
H50 H 0.9303 0.4851 0.7403
H51 H 0.9512 0.4466 0.8150
Cl1? Cl 1.0120(15) 0.6138(16) 0.7851(9)
Cl2? Cl 0.7818(13) 0.5894(12) 0.8036(7)
C43? C 0.8599(15) 0.509(2) 0.7639(16)
H52? H 0.8443 0.4316 0.7833
H53? H 0.8373 0.4937 0.7135
loop_
_geom_bond_atom_site_label_1
_geom_bond_atom_site_label_2
_geom_bond_site_symmetry_1
_geom_bond_site_symmetry_2
Cu1 I2 1_555 1_555
Cu2 I1 1_555 1_555
Cu3 I1 1_555 1_555
Cu4 I1 1_555 1_555
I2 Cu2 1_555 1_555
I3 Cu1 1_555 1_555
I4 Cu1 1_555 1_555
S1 Cu4 1_555 1_555
S2 C9 1_555 1_555
S3 C33 1_555 1_555
S4 Cu1 1_555 1_555
O1 C1 1_555 1_555
O2 C2 1_555 1_555
O3 C11 1_555 1_555
O4 C21 1_555 1_555
O5 C22 1_555 1_555
O6 C31 1_555 1_555
C1 H1 1_555 1_555
H2 C1 1_555 1_555
C2 C1 1_555 1_555
H3 C2 1_555 1_555
H4 C2 1_555 1_555
C3 O2 1_555 1_555
C4 C3 1_555 1_555
H5 C4 1_555 1_555
C5 C4 1_555 1_555
H6 C5 1_555 1_555
C6 C5 1_555 1_555
H7 C6 1_555 1_555
C7 C6 1_555 1_555
H8 C7 1_555 1_555
C8 C3 1_555 1_555
C9 C8 1_555 1_555
H9 C9 1_555 1_555
H10 C9 1_555 1_555
C10 S2 1_555 1_555
H11 C10 1_555 1_555
H12 C10 1_555 1_555
C11 C10 1_555 1_555
H13 C11 1_555 1_555
H14 C11 1_555 1_555
C12 O3 1_555 1_555
H15 C12 1_555 1_555
H16 C12 1_555 1_555
C13 S1 1_555 1_555
H17 C13 1_555 1_555
H18 C13 1_555 1_555
C14 S1 1_555 1_555
H19 C14 1_555 1_555
H20 C14 1_555 1_555
C15 C14 1_555 1_555
C16 C15 1_555 1_555
H21 C16 1_555 1_555
C17 C16 1_555 1_555
H22 C17 1_555 1_555
C18 C17 1_555 1_555
H23 C18 1_555 1_555
C19 C18 1_555 1_555
H24 C19 1_555 1_555
C20 O1 1_555 1_555
C21 H25 1_555 1_555
H26 C21 1_555 1_555
C22 C21 1_555 1_555
H27 C22 1_555 1_555
H28 C22 1_555 1_555
C23 O5 1_555 1_555
C24 C23 1_555 1_555
H29 C24 1_555 1_555
C25 C24 1_555 1_555
H30 C25 1_555 1_555
C26 C25 1_555 1_555
H31 C26 1_555 1_555
C27 C26 1_555 1_555
H32 C27 1_555 1_555
C28 C23 1_555 1_555
C29 S4 1_555 1_555
H33 C29 1_555 1_555
H34 C29 1_555 1_555
C30 S4 1_555 1_555
H35 C30 1_555 1_555
H36 C30 1_555 1_555
C31 C30 1_555 1_555
H37 C31 1_555 1_555
H38 C31 1_555 1_555
C32 O6 1_555 1_555
H39 C32 1_555 1_555
H40 C32 1_555 1_555
C33 C32 1_555 1_555
H41 C33 1_555 1_555
H42 C33 1_555 1_555
C34 S3 1_555 1_555
H43 C34 1_555 1_555
H44 C34 1_555 1_555
C35 C34 1_555 1_555
C36 C35 1_555 1_555
H45 C36 1_555 1_555
C37 C36 1_555 1_555
H46 C37 1_555 1_555
C38 C37 1_555 1_555
H47 C38 1_555 1_555
C39 C38 1_555 1_555
H48 C39 1_555 1_555
C40 O4 1_555 1_555
N1 C41 1_555 1_555
C41 C42 1_555 1_555
C42 H49 1_555 1_555
H50 C42 1_555 1_555
H51 C42 1_555 1_555
Cu2A S2 1_555 1_555
Cu3_2 S3 1_555 1_555
S2A Cu2 1_555 1_555
S3_2 Cu3 1_555 1_555
Cu2 I4 1_555 1_555
Cu3 I3 1_555 1_555
Cu3 I4 1_555 1_555
Cu4 I2 1_555 1_555
Cu4 I3 1_555 1_555
C7 C8 1_555 1_555
C12 C13 1_555 1_555
C15 C20 1_555 1_555
C19 C20 1_555 1_555
C27 C28 1_555 1_555
C28 C29 1_555 1_555
C35 C40 1_555 1_555
C39 C40 1_555 1_555

#END
