
#######################################################################
#
#                 Cambridge Crystallographic Data Centre
#                                CCDC 
#
#######################################################################
#
# If this CIF has been generated from an entry in the Cambridge 
# Structural Database, then it will include bibliographic, chemical, 
# crystal, experimental, refinement or atomic coordinate data resulting 
# from the CCDC's data processing and validation procedures.
#
#######################################################################

data_YOZGUR
_symmetry_cell_setting           triclinic
_symmetry_space_group_name_H-M   'P 1'
_symmetry_Int_Tables_number      1
_space_group_name_Hall           'P 1'
loop_
_symmetry_equiv_pos_site_id
_symmetry_equiv_pos_as_xyz
1 x,y,z
_cell_length_a                   9.756(2)
_cell_length_b                   10.346(3)
_cell_length_c                   11.822(3)
_cell_angle_alpha                86.418(5)
_cell_angle_beta                 86.785(6)
_cell_angle_gamma                87.184(5)
_cell_volume                     1187.81
loop_
_atom_site_label
_atom_site_type_symbol
_atom_site_fract_x
_atom_site_fract_y
_atom_site_fract_z
Zn1 Zn -0.82729(3) -0.00820(3) -0.42315(3)
C1 C -0.7149(5) -0.2139(5) -0.2659(4)
H1 H -0.6334 -0.1916 -0.3052
C2 C -0.7087(5) -0.3042(5) -0.1787(4)
H2 H -0.6239 -0.3413 -0.1591
C3 C -0.8260(6) -0.3424(5) -0.1182(4)
C4 C -0.9485(6) -0.2841(5) -0.1517(5)
H3 H -1.0304 -0.3067 -0.1133
C5 C -0.9508(5) -0.1924(5) -0.2418(4)
H4 H -1.0349 -0.1560 -0.2638
C6 C -0.8192(8) -0.4388(5) -0.0164(5)
H5 H -0.7305 -0.4855 -0.0186
H6 H -0.8897 -0.5011 -0.0197
C7 C -0.8399(8) -0.3701(6) 0.0948(4)
H7 H -0.9299 -0.3258 0.0977
H8 H -0.8372 -0.4342 0.1581
C8 C -0.7314(7) -0.2727(6) 0.1069(5)
H9 H -0.6411 -0.3162 0.1012
H10 H -0.7363 -0.2066 0.0452
C9 C -0.7495(6) -0.2086(5) 0.2192(5)
C10 C -0.8596(7) -0.1238(6) 0.2394(5)
H11 H -0.9225 -0.1043 0.1838
C11 C -0.8767(6) -0.0674(6) 0.3424(5)
H12 H -0.9492 -0.0069 0.3531
C12 C -0.6873(6) -0.1773(6) 0.4086(4)
H13 H -0.6258 -0.1955 0.4654
C13 C -0.6638(6) -0.2378(6) 0.3049(5)
H14 H -0.5901 -0.2973 0.2953
C14 C -1.0903(5) 0.0712(5) -0.4287(4)
C15 C -1.2174(5) 0.1611(6) -0.4245(7)
H15 H -1.2074 0.2275 -0.4856
H16 H -1.2206 0.2040 -0.3537
C16 C -1.3536(5) 0.0999(5) -0.4337(5)
H17 H -1.3680 0.0379 -0.3697
H18 H -1.3499 0.0528 -0.5023
C17 C -1.4737(5) 0.1968(4) -0.4363(4)
H19 H -1.4522 0.2615 -0.4980
C18 C -1.6021(5) 0.1437(5) -0.4610(4)
C19 C -1.4474(4) 0.3904(4) -0.3189(3)
N1 N -0.8345(4) -0.1540(4) -0.2989(3)
N2 N -0.7931(5) -0.0961(4) 0.4277(4)
N3 N -1.4121(5) 0.4654(3) -0.4004(3)
H20 H -1.4099 0.4399 -0.4684
H21 H -1.3900 0.5427 -0.3889
N4 N -1.4840(3) 0.2669(3) -0.3287(3)
H22 H -1.5158 0.2255 -0.2683
O1 O -0.9764(4) 0.1239(4) -0.4184(4)
O2 O -1.0989(4) -0.0468(3) -0.4423(4)
O3 O -1.6597(4) 0.0737(3) -0.3809(3)
O4 O -1.6482(4) 0.1617(4) -0.5562(3)
O5 O -1.4473(5) 0.4298(4) -0.2113(3)
Zn1_2 Zn -1.82729(3) -0.00820(3) -0.42315(3)
Zn1_3 Zn -0.82729(3) -0.00820(3) 0.57685(3)
N2_2 N -0.7931(5) -0.0961(4) -0.5723(4)
O3_2 O -0.6597(4) 0.0737(3) -0.3809(3)
Zn2 Zn -0.92582(3) -0.84588(3) -0.07663(3)
C20 C -1.0733(6) -0.7043(6) 0.1066(5)
H23 H -1.1428 -0.7000 0.0556
C21 C -1.0985(7) -0.6485(6) 0.2060(5)
H24 H -1.1834 -0.6067 0.2215
C22 C -0.9997(6) -0.6527(5) 0.2848(4)
C23 C -0.8757(7) -0.7160(7) 0.2568(5)
H25 H -0.8052 -0.7214 0.3068
C24 C -0.8580(6) -0.7716(5) 0.1524(5)
H26 H -0.7745 -0.8150 0.1350
C25 C -1.0271(7) -0.5914(6) 0.3984(5)
H27 H -1.1239 -0.5660 0.4074
H28 H -1.0061 -0.6554 0.4592
C26 C -0.9435(7) -0.4745(5) 0.4088(4)
H29 H -0.9621 -0.4113 0.3468
H30 H -0.8465 -0.5002 0.4028
C27 C -0.9772(7) -0.4110(5) 0.5238(4)
H31 H -0.9166 -0.3405 0.5296
H32 H -1.0708 -0.3748 0.5250
C28 C -0.9615(5) -0.5061(4) 0.6243(4)
C29 C -0.8383(6) -0.5618(5) 0.6497(4)
H33 H -0.7594 -0.5375 0.6074
C30 C -0.8288(5) -0.6567(5) 0.7398(4)
H34 H -0.7429 -0.6947 0.7551
C31 C -1.0585(5) -0.6394(5) 0.7795(4)
H35 H -1.1356 -0.6663 0.8228
C32 C -1.0751(5) -0.5434(5) 0.6918(5)
H36 H -1.1615 -0.5050 0.6791
C33 C -0.6479(5) -0.9220(4) -0.0879(4)
C34 C -0.5299(5) -1.0189(5) -0.0993(4)
H37 H -0.5180 -1.0405 -0.1781
H38 H -0.5524 -1.0975 -0.0545
C35 C -0.3935(5) -0.9726(4) -0.0618(4)
H39 H -0.4041 -0.9529 0.0174
H40 H -0.3710 -0.8934 -0.1058
C36 C -0.2744(4) -1.0746(3) -0.0773(4)
H41 H -0.2626 -1.0933 -0.1576
C37 C -0.1422(4) -1.0102(4) -0.0412(4)
C38 C -0.3300(4) -1.3049(4) -0.0578(4)
N5 N -0.9528(4) -0.7661(4) 0.0769(3)
N6 N -0.9356(4) -0.6936(4) 0.8028(3)
N7 N -0.2927(3) -1.1933(3) -0.0105(3)
H42 H -0.2803 -1.1954 0.0610
N8 N -0.3593(4) -1.3105(3) -0.1521(3)
H43 H -0.3810 -1.3831 -0.1762
H44 H -0.3590 -1.2421 -0.1972
O6 O -0.6284(4) -0.8048(3) -0.0899(3)
O7 O -0.7682(3) -0.9668(3) -0.0808(3)
O8 O -0.0998(4) -1.0387(4) 0.0526(3)
O9 O -0.0927(3) -0.9270(3) -0.1143(3)
O10 O -0.3276(6) -1.4091(4) 0.0205(4)
Zn2_2 Zn -0.92582(3) -0.84588(3) 0.92337(3)
Zn2_3 Zn 0.07418(3) -0.84588(3) -0.07663(3)
N6_2 N -0.9356(4) -0.6936(4) -0.1972(3)
O9_2 O -1.0927(3) -0.9270(3) -0.1143(3)
O11 O -0.4776(5) -0.6543(5) 0.0475(4)
O12 O -1.2479(4) -0.1742(4) -0.5809(4)
O13 O -1.4062(4) 0.7263(3) -0.3953(3)
O14 O -1.2593(6) -0.3348(5) -0.7562(5)
O15 O -1.4594(4) 0.2379(4) -0.7292(3)
O16 O -1.4264(6) -0.5126(5) -0.6429(4)
O17 O -1.2626(6) 0.0341(6) -0.7485(5)
loop_
_geom_bond_atom_site_label_1
_geom_bond_atom_site_label_2
_geom_bond_site_symmetry_1
_geom_bond_site_symmetry_2
Zn1 N1 1_555 1_555
C1 H1 1_555 1_555
C2 C1 1_555 1_555
H2 C2 1_555 1_555
C3 C2 1_555 1_555
C4 C3 1_555 1_555
H3 C4 1_555 1_555
C5 C4 1_555 1_555
H4 C5 1_555 1_555
C6 C3 1_555 1_555
H5 C6 1_555 1_555
H6 C6 1_555 1_555
C7 C6 1_555 1_555
H7 C7 1_555 1_555
H8 C7 1_555 1_555
C8 C7 1_555 1_555
H9 C8 1_555 1_555
H10 C8 1_555 1_555
C9 C8 1_555 1_555
C10 C9 1_555 1_555
H11 C10 1_555 1_555
C11 C10 1_555 1_555
H12 C11 1_555 1_555
C12 H13 1_555 1_555
C13 C9 1_555 1_555
H14 C13 1_555 1_555
C14 C15 1_555 1_555
C15 H15 1_555 1_555
H16 C15 1_555 1_555
C16 C15 1_555 1_555
H17 C16 1_555 1_555
H18 C16 1_555 1_555
C17 C16 1_555 1_555
H19 C17 1_555 1_555
C18 C17 1_555 1_555
C19 N3 1_555 1_555
N1 C1 1_555 1_555
N2 C11 1_555 1_555
N3 H20 1_555 1_555
H21 N3 1_555 1_555
N4 C17 1_555 1_555
H22 N4 1_555 1_555
O1 Zn1 1_555 1_555
O2 C14 1_555 1_555
O3 C18 1_555 1_555
O4 C18 1_555 1_555
O5 C19 1_555 1_555
Zn2 N5 1_555 1_555
C20 H23 1_555 1_555
C21 C20 1_555 1_555
H24 C21 1_555 1_555
C22 C21 1_555 1_555
C23 C22 1_555 1_555
H25 C23 1_555 1_555
C24 C23 1_555 1_555
H26 C24 1_555 1_555
C25 C22 1_555 1_555
H27 C25 1_555 1_555
H28 C25 1_555 1_555
C26 C25 1_555 1_555
H29 C26 1_555 1_555
H30 C26 1_555 1_555
C27 C26 1_555 1_555
H31 C27 1_555 1_555
H32 C27 1_555 1_555
C28 C27 1_555 1_555
C29 C28 1_555 1_555
H33 C29 1_555 1_555
C30 C29 1_555 1_555
H34 C30 1_555 1_555
C31 H35 1_555 1_555
C32 C28 1_555 1_555
H36 C32 1_555 1_555
C33 C34 1_555 1_555
C34 H37 1_555 1_555
H38 C34 1_555 1_555
C35 C34 1_555 1_555
H39 C35 1_555 1_555
H40 C35 1_555 1_555
C36 C35 1_555 1_555
H41 C36 1_555 1_555
C37 C36 1_555 1_555
C38 N7 1_555 1_555
N5 C20 1_555 1_555
N6 C30 1_555 1_555
N7 C36 1_555 1_555
H42 N7 1_555 1_555
N8 C38 1_555 1_555
H43 N8 1_555 1_555
H44 N8 1_555 1_555
O6 C33 1_555 1_555
O7 Zn2 1_555 1_555
O8 C37 1_555 1_555
O9 C37 1_555 1_555
O10 C38 1_555 1_555
Zn1_2 O3 1_555 1_555
Zn1_3 N2 1_555 1_555
N2_2 Zn1 1_555 1_555
O3_2 Zn1 1_555 1_555
Zn2_2 N6 1_555 1_555
Zn2_3 O9 1_555 1_555
N6_2 Zn2 1_555 1_555
O9_2 Zn2 1_555 1_555
C5 N1 1_555 1_555
C12 C13 1_555 1_555
C12 N2 1_555 1_555
C14 O1 1_555 1_555
C19 N4 1_555 1_555
C24 N5 1_555 1_555
C31 C32 1_555 1_555
C31 N6 1_555 1_555
C33 O7 1_555 1_555

#END
