
#######################################################################
#
#                 Cambridge Crystallographic Data Centre
#                                CCDC 
#
#######################################################################
#
# If this CIF has been generated from an entry in the Cambridge 
# Structural Database, then it will include bibliographic, chemical, 
# crystal, experimental, refinement or atomic coordinate data resulting 
# from the CCDC's data processing and validation procedures.
#
#######################################################################

data_YUBBUT
_symmetry_cell_setting           monoclinic
_symmetry_space_group_name_H-M   'C 2/c'
_symmetry_Int_Tables_number      15
_space_group_name_Hall           '-C 2yn'
loop_
_symmetry_equiv_pos_site_id
_symmetry_equiv_pos_as_xyz
1 x,y,z
2 -x,y,1/2-z
3 1/2+x,1/2+y,z
4 1/2-x,1/2+y,1/2-z
5 -x,-y,-z
6 x,-y,1/2+z
7 1/2-x,1/2-y,-z
8 1/2+x,1/2-y,1/2+z
_cell_length_a                   35.6360(19)
_cell_length_b                   23.5611(19)
_cell_length_c                   22.6605(15)
_cell_angle_alpha                90
_cell_angle_beta                 90.7780(10)
_cell_angle_gamma                90
_cell_volume                     19024.5
loop_
_atom_site_label
_atom_site_type_symbol
_atom_site_fract_x
_atom_site_fract_y
_atom_site_fract_z
Nd1 Nd 0.329582(11) -0.031578(16) -0.012573(16)
C1 C 0.5202(3) -0.0517(4) 0.2533(4)
C2 C 0.5386(3) -0.0887(5) 0.2879(5)
H1 H 0.5249 -0.1125 0.3122
C3 C 0.5780(5) -0.0930(8) 0.2889(6)
H2 H 0.5897 -0.1205 0.3120
C4 C 0.5988(4) -0.0569(8) 0.2563(6)
H3 H 0.6248 -0.0600 0.2569
C5 C 0.5817(3) -0.0153(6) 0.2219(5)
H4 H 0.5958 0.0106 0.2006
C6 C 0.5422(3) -0.0138(5) 0.2204(5)
C7 C 0.5377(3) 0.0412(5) 0.1340(8)
H5 H 0.5638 0.0520 0.1394
H6 H 0.5243 0.0739 0.1186
C8 C 0.5353(2) -0.0049(6) 0.0911(5)
H7 H 0.5481 -0.0381 0.1066
H8 H 0.5475 0.0063 0.0549
C9 C 0.4854(3) -0.0655(5) 0.0484(4)
C10 C 0.5112(4) -0.1025(7) 0.0236(5)
H9 H 0.5367 -0.0952 0.0285
C11 C 0.5005(5) -0.1471(8) -0.0064(7)
H10 H 0.5182 -0.1707 -0.0237
C12 C 0.4622(5) -0.1592(6) -0.0123(5)
H11 H 0.4547 -0.1917 -0.0326
C13 C 0.4348(3) -0.1237(4) 0.0116(5)
H12 H 0.4095 -0.1323 0.0069
C14 C 0.4461(2) -0.0756(4) 0.0426(4)
C15 C 0.4161(2) -0.0383(3) 0.0643(3)
C16 C 0.3987(3) 0.0470(5) 0.1186(5)
H13 H 0.3884 0.0322 0.1549
H14 H 0.3782 0.0522 0.0905
C17 C 0.4173(3) 0.1033(5) 0.1308(4)
C18 C 0.4431(4) 0.1078(6) 0.1751(6)
H15 H 0.4498 0.0770 0.1987
C19 C 0.4592(5) 0.1616(9) 0.1834(9)
H16 H 0.4776 0.1673 0.2123
C20 C 0.4469(6) 0.2077(6) 0.1465(11)
H17 H 0.4567 0.2437 0.1534
C21 C 0.4220(6) 0.2011(11) 0.1031(10)
H18 H 0.4150 0.2308 0.0782
C22 C 0.4076(4) 0.1490(7) 0.0976(6)
H19 H 0.3893 0.1436 0.0685
C23 C 0.2985(4) 0.2486(6) 0.0411(5)
H20 H 0.2777 0.2555 0.0644
C24 C 0.3246(7) 0.2935(7) 0.0312(7)
H21 H 0.3209 0.3292 0.0478
C25 C 0.3542(6) 0.2833(12) -0.0021(9)
H22 H 0.3721 0.3114 -0.0084
C26 C 0.3579(8) 0.2323(16) -0.0261(10)
H23 H 0.3784 0.2256 -0.0500
C27 C 0.3317(6) 0.1870(9) -0.0170(8)
H24 H 0.3351 0.1520 -0.0352
C28 C 0.3031(4) 0.1957(5) 0.0173(4)
C29 C 0.2765(4) 0.1475(5) 0.0281(4)
H25 H 0.2509 0.1614 0.0263
H26 H 0.2794 0.1191 -0.0025
C30 C 0.2987(2) 0.0711(4) 0.0948(3)
C31 C 0.3021(2) 0.0494(4) 0.1561(3)
C32 C 0.2883(3) -0.0046(5) 0.1673(4)
H27 H 0.2774 -0.0259 0.1371
C33 C 0.2911(4) -0.0265(5) 0.2241(5)
H28 H 0.2818 -0.0625 0.2322
C34 C 0.3076(4) 0.0053(6) 0.2683(5)
H29 H 0.3089 -0.0094 0.3063
C35 C 0.3217(3) 0.0567(5) 0.2579(4)
H30 H 0.3335 0.0766 0.2883
C36 C 0.3190(2) 0.0808(4) 0.2013(3)
C37 C 0.3444(3) 0.1710(4) 0.2308(5)
H31 H 0.3709 0.1655 0.2395
H32 H 0.3305 0.1651 0.2667
C38 C 0.3377(3) 0.2291(4) 0.2077(6)
H33 H 0.3473 0.2578 0.2347
H34 H 0.3490 0.2343 0.1693
C39 C 0.2771(4) 0.2801(4) 0.1914(4)
C40 C 0.2956(5) 0.3323(6) 0.1815(5)
H35 H 0.3215 0.3360 0.1860
C41 C 0.2724(7) 0.3789(5) 0.1640(6)
H36 H 0.2832 0.4143 0.1576
C42 C 0.2352(8) 0.3726(9) 0.1568(7)
H37 H 0.2202 0.4029 0.1449
C43 C 0.2200(5) 0.3212(6) 0.1673(5)
H38 H 0.1942 0.3170 0.1625
C44 C 0.2405(4) 0.2749(5) 0.1845(4)
C45 C 0.2222(3) 0.2192(5) 0.1898(4)
C46 C 0.2023(4) 0.1982(7) 0.1403(5)
H39 H 0.2001 0.2199 0.1061
C47 C 0.1862(4) 0.1456(9) 0.1432(8)
H40 H 0.1717 0.1324 0.1116
C48 C 0.1911(5) 0.1116(7) 0.1925(8)
H41 H 0.1822 0.0745 0.1928
C49 C 0.2096(4) 0.1339(6) 0.2413(5)
H42 H 0.2116 0.1124 0.2757
C50 C 0.2247(3) 0.1860(4) 0.2397(4)
C51 C 0.2469(3) 0.1744(3) 0.3379(4)
H43 H 0.2570 0.1378 0.3267
H44 H 0.2230 0.1683 0.3568
C52 C 0.2739(3) 0.2045(3) 0.3800(4)
H45 H 0.2807 0.1797 0.4126
H46 H 0.2966 0.2151 0.3596
C53 C 0.2739(2) 0.2883(3) 0.4408(3)
C54 C 0.3082(3) 0.2735(4) 0.4662(4)
H47 H 0.3192 0.2390 0.4567
C55 C 0.3257(3) 0.3090(5) 0.5046(5)
H48 H 0.3486 0.2983 0.5214
C56 C 0.3101(3) 0.3610(5) 0.5195(5)
H49 H 0.3221 0.3850 0.5463
C57 C 0.2761(2) 0.3762(4) 0.4932(4)
H50 H 0.2658 0.4115 0.5020
C58 C 0.2569(2) 0.3412(3) 0.4549(3)
C59 C 0.2196(2) 0.3622(4) 0.4315(4)
C60 C 0.1675(3) 0.3483(5) 0.3651(6)
H51 H 0.1537 0.3700 0.3940
H52 H 0.1715 0.3725 0.3312
C61 C 0.1455(3) 0.3016(5) 0.3473(6)
C62 C 0.1521(4) 0.2747(6) 0.2940(7)
H53 H 0.1697 0.2895 0.2682
C63 C 0.1326(4) 0.2255(6) 0.2791(7)
H54 H 0.1370 0.2075 0.2434
C64 C 0.1063(4) 0.2034(7) 0.3177(7)
H55 H 0.0932 0.1705 0.3078
C65 C 0.0997(4) 0.2304(6) 0.3711(7)
H56 H 0.0821 0.2156 0.3969
C66 C 0.1192(3) 0.2795(5) 0.3859(6)
H57 H 0.1148 0.2976 0.4216
N1 N 0.42575(19) 0.0064(3) 0.0949(3)
H64 H 0.4492 0.0124 0.1014
N2 N 0.3629(2) -0.1193(4) -0.0872(4)
N3 N 0.3674(2) 0.0626(3) -0.0754(3)
N4 N 0.2614(2) -0.0314(3) -0.0899(3)
N5 N 0.2839(3) 0.1213(3) 0.0866(3)
H65 H 0.2779 0.1405 0.1174
N6 N 0.2034(2) 0.3331(3) 0.3903(4)
H66 H 0.2146 0.3033 0.3772
O1 O 0.52283(18) 0.0261(3) 0.1886(4)
O2 O 0.49601(15) -0.0186(3) 0.0786(3)
O3 O 0.38242(15) -0.0488(2) 0.0526(2)
O4 O 0.34488(17) -0.1327(2) -0.0415(3)
O5 O 0.37004(17) -0.0679(3) -0.0953(2)
O6 O 0.3727(2) -0.1563(3) -0.1222(3)
O7 O 0.38136(16) 0.0402(2) -0.0301(3)
O8 O 0.33466(19) 0.0452(2) -0.0901(2)
O9 O 0.3832(2) 0.0986(3) -0.1043(3)
O10 O 0.28870(17) -0.0657(2) -0.0972(2)
O11 O 0.23437(19) -0.0302(3) -0.1229(3)
O12 O 0.26412(15) 0.0015(2) -0.0456(2)
O13 O 0.30784(15) 0.0410(2) 0.0527(2)
O14 O 0.33195(18) 0.1317(3) 0.1856(2)
O15 O 0.2972(2) 0.2303(3) 0.2039(4)
O16 O 0.24207(18) 0.2093(2) 0.2871(3)
O17 O 0.25496(15) 0.2550(2) 0.4017(2)
O18 O 0.20556(15) 0.4061(2) 0.4522(2)
Nd1A Nd 0.670418(11) -0.031578(16) 0.512573(16)
Nd1C Nd 0.170418(11) 0.468422(16) 0.512573(16)
Nd1C_2 Nd 0.170418(11) -0.531578(16) 0.512573(16)
C1A C 0.4798(3) -0.0517(4) 0.2467(4)
C2A C 0.4614(3) -0.0887(5) 0.2121(5)
H1A H 0.4751 -0.1125 0.1878
C3A C 0.4220(5) -0.0930(8) 0.2111(6)
H2A H 0.4103 -0.1205 0.1880
C4A C 0.4012(4) -0.0569(8) 0.2437(6)
H3A H 0.3752 -0.0600 0.2431
C5A C 0.4183(3) -0.0153(6) 0.2781(5)
H4A H 0.4042 0.0106 0.2994
C6A C 0.4578(3) -0.0138(5) 0.2796(5)
C7A C 0.4623(3) 0.0412(5) 0.3660(8)
H5A H 0.4362 0.0520 0.3606
H6A H 0.4757 0.0739 0.3814
C8A C 0.4647(2) -0.0049(6) 0.4089(5)
H7A H 0.4519 -0.0381 0.3934
H8A H 0.4525 0.0063 0.4451
C9A C 0.5146(3) -0.0655(5) 0.4516(4)
C10A C 0.4888(4) -0.1025(7) 0.4764(5)
H9A H 0.4633 -0.0952 0.4715
C11A C 0.4995(5) -0.1471(8) 0.5064(7)
H10A H 0.4818 -0.1707 0.5237
C12A C 0.5378(5) -0.1592(6) 0.5123(5)
H11A H 0.5453 -0.1917 0.5326
C13A C 0.5652(3) -0.1237(4) 0.4884(5)
H12A H 0.5905 -0.1323 0.4931
C14A C 0.5539(2) -0.0756(4) 0.4574(4)
C15A C 0.5839(2) -0.0383(3) 0.4357(3)
C16A C 0.6013(3) 0.0470(5) 0.3814(5)
H13A H 0.6116 0.0322 0.3451
H14A H 0.6218 0.0522 0.4095
C17A C 0.5827(3) 0.1033(5) 0.3692(4)
C18A C 0.5569(4) 0.1078(6) 0.3249(6)
H15A H 0.5502 0.0770 0.3013
C19A C 0.5408(5) 0.1616(9) 0.3166(9)
H16A H 0.5224 0.1673 0.2877
C20A C 0.5531(6) 0.2077(6) 0.3535(11)
H17A H 0.5433 0.2437 0.3466
C21A C 0.5780(6) 0.2011(11) 0.3969(10)
H18A H 0.5850 0.2308 0.4218
C22A C 0.5924(4) 0.1490(7) 0.4024(6)
H19A H 0.6107 0.1436 0.4315
C23C C 0.2015(4) -0.2514(6) 0.4589(5)
H20C H 0.2223 -0.2445 0.4356
C24C C 0.1754(7) -0.2065(7) 0.4688(7)
H21C H 0.1791 -0.1708 0.4522
C25C C 0.1458(6) -0.2167(12) 0.5021(9)
H22C H 0.1279 -0.1886 0.5084
C26C C 0.1421(8) -0.2677(16) 0.5261(10)
H23C H 0.1216 -0.2744 0.5500
C27C C 0.1683(6) -0.3130(9) 0.5170(8)
H24C H 0.1649 -0.3480 0.5352
C28C C 0.1969(4) -0.3043(5) 0.4827(4)
C29C C 0.2235(4) -0.3525(5) 0.4719(4)
H25C H 0.2491 -0.3386 0.4737
H26C H 0.2206 -0.3809 0.5025
C30C C 0.2013(2) -0.4289(4) 0.4052(3)
C31C C 0.1979(2) -0.4506(4) 0.3439(3)
C32C C 0.2117(3) -0.5046(5) 0.3327(4)
H27C H 0.2226 -0.5259 0.3629
C33C C 0.2089(4) -0.5265(5) 0.2759(5)
H28C H 0.2182 -0.5625 0.2678
C34C C 0.1924(4) -0.4947(6) 0.2317(5)
H29C H 0.1911 -0.5094 0.1937
C35C C 0.1783(3) -0.4433(5) 0.2421(4)
H30C H 0.1665 -0.4234 0.2117
C36C C 0.1810(2) -0.4192(4) 0.2987(3)
C37C C 0.1556(3) -0.3290(4) 0.2692(5)
H31C H 0.1291 -0.3345 0.2605
H32C H 0.1695 -0.3349 0.2333
C38C C 0.1623(3) -0.2709(4) 0.2923(6)
H33C H 0.1527 -0.2422 0.2653
H34C H 0.1510 -0.2657 0.3307
C39C C 0.2229(4) -0.2199(4) 0.3086(4)
C40C C 0.2044(5) -0.1677(6) 0.3185(5)
H35C H 0.1785 -0.1640 0.3140
C41C C 0.2276(7) -0.1211(5) 0.3360(6)
H36C H 0.2168 -0.0857 0.3424
C42C C 0.2648(8) -0.1274(9) 0.3432(7)
H37C H 0.2798 -0.0971 0.3551
C43C C 0.2800(5) -0.1788(6) 0.3327(5)
H38C H 0.3058 -0.1830 0.3375
C44C C 0.2595(4) -0.2251(5) 0.3155(4)
C45C C 0.2778(3) -0.2808(5) 0.3102(4)
C46C C 0.2977(4) -0.3018(7) 0.3597(5)
H39C H 0.2999 -0.2801 0.3939
C47C C 0.3138(4) -0.3544(9) 0.3568(8)
H40C H 0.3283 -0.3676 0.3884
C48C C 0.3089(5) -0.3884(7) 0.3075(8)
H41C H 0.3178 -0.4255 0.3072
C49C C 0.2904(4) -0.3661(6) 0.2587(5)
H42C H 0.2884 -0.3876 0.2243
C50C C 0.2753(3) -0.3140(4) 0.2603(4)
C51C C 0.2531(3) -0.3256(3) 0.1621(4)
H43C H 0.2430 -0.3622 0.1733
H44C H 0.2770 -0.3317 0.1432
C52C C 0.2261(3) -0.2955(3) 0.1200(4)
H45C H 0.2193 -0.3203 0.0874
H46C H 0.2034 -0.2849 0.1404
C53C C 0.2261(2) -0.2117(3) 0.0592(3)
C54C C 0.1918(3) -0.2265(4) 0.0338(4)
H47C H 0.1808 -0.2610 0.0433
C55C C 0.1743(3) -0.1910(5) -0.0046(5)
H48C H 0.1514 -0.2017 -0.0214
C56C C 0.1899(3) -0.1390(5) -0.0195(5)
H49C H 0.1779 -0.1150 -0.0463
C57C C 0.2239(2) -0.1238(4) 0.0068(4)
H50C H 0.2342 -0.0885 -0.0020
C58C C 0.2431(2) -0.1588(3) 0.0451(3)
C59C C 0.2804(2) -0.1378(4) 0.0685(4)
C60C C 0.3325(3) -0.1517(5) 0.1349(6)
H51C H 0.3463 -0.1300 0.1060
H52C H 0.3285 -0.1275 0.1688
C61C C 0.3545(3) -0.1984(5) 0.1527(6)
C62C C 0.3479(4) -0.2253(6) 0.2060(7)
H53C H 0.3303 -0.2105 0.2318
C63C C 0.3674(4) -0.2745(6) 0.2209(7)
H54C H 0.3630 -0.2925 0.2566
C64C C 0.3937(4) -0.2966(7) 0.1823(7)
H55C H 0.4068 -0.3295 0.1922
C65C C 0.4003(4) -0.2696(6) 0.1289(7)
H56C H 0.4179 -0.2844 0.1031
C66C C 0.3808(3) -0.2205(5) 0.1141(6)
H57C H 0.3852 -0.2024 0.0784
N1A N 0.57425(19) 0.0064(3) 0.4051(3)
H64A H 0.5508 0.0124 0.3986
N2A N 0.6371(2) -0.1193(4) 0.5872(4)
N3A N 0.6326(2) 0.0626(3) 0.5754(3)
N4A N 0.7386(2) -0.0314(3) 0.5899(3)
N5C N 0.2161(3) -0.3787(3) 0.4134(3)
H65C H 0.2221 -0.3595 0.3826
N6C N 0.2966(2) -0.1669(3) 0.1097(4)
H66C H 0.2854 -0.1967 0.1228
O1A O 0.47717(18) 0.0261(3) 0.3114(4)
O2A O 0.50399(15) -0.0186(3) 0.4214(3)
O3A O 0.61758(15) -0.0488(2) 0.4474(2)
O4A O 0.65512(17) -0.1327(2) 0.5415(3)
O5A O 0.62996(17) -0.0679(3) 0.5953(2)
O6A O 0.6273(2) -0.1563(3) 0.6222(3)
O7A O 0.61864(16) 0.0402(2) 0.5301(3)
O8A O 0.66534(19) 0.0452(2) 0.5901(2)
O9A O 0.6168(2) 0.0986(3) 0.6043(3)
O10A O 0.71130(17) -0.0657(2) 0.5972(2)
O11A O 0.76563(19) -0.0302(3) 0.6229(3)
O12A O 0.73588(15) 0.0015(2) 0.5456(2)
O13C O 0.19216(15) -0.4590(2) 0.4473(2)
O13A O 0.69216(15) 0.0410(2) 0.4473(2)
O14C O 0.16805(18) -0.3683(3) 0.3144(2)
O15C O 0.2028(2) -0.2697(3) 0.2961(4)
O16C O 0.25793(18) -0.2907(2) 0.2129(3)
O17C O 0.24504(15) -0.2450(2) 0.0983(2)
O18C O 0.29444(15) -0.0939(2) 0.0478(2)
O18B O 0.70556(15) -0.0939(2) 0.4522(2)
H58 H 0.1727 0.0331 0.0069
H59 H 0.1410 0.0367 0.0425
O19 O 0.1604(3) 0.0152(6) 0.0344(6)
H60 H 0.5424 0.7472 0.1230
H61 H 0.5483 0.7959 0.1604
O20 O 0.5318(3) 0.7709(5) 0.1501(6)
H62 H 0.3135 0.3934 0.3339
H63 H 0.3421 0.4275 0.3154
O21 O 0.3378(3) 0.3973(5) 0.3375(6)
loop_
_geom_bond_atom_site_label_1
_geom_bond_atom_site_label_2
_geom_bond_site_symmetry_1
_geom_bond_site_symmetry_2
Nd1 O3 1_555 1_555
C1 C2 1_555 1_555
C2 H1 1_555 1_555
C3 C2 1_555 1_555
H2 C3 1_555 1_555
C4 C3 1_555 1_555
H3 C4 1_555 1_555
C5 C4 1_555 1_555
H4 C5 1_555 1_555
C6 C1 1_555 1_555
C7 H5 1_555 1_555
H6 C7 1_555 1_555
C8 C7 1_555 1_555
H7 C8 1_555 1_555
H8 C8 1_555 1_555
C9 C10 1_555 1_555
C10 H9 1_555 1_555
C11 C10 1_555 1_555
H10 C11 1_555 1_555
C12 C11 1_555 1_555
H11 C12 1_555 1_555
C13 C12 1_555 1_555
H12 C13 1_555 1_555
C14 C9 1_555 1_555
C15 C14 1_555 1_555
C16 H13 1_555 1_555
H14 C16 1_555 1_555
C17 C16 1_555 1_555
C18 C17 1_555 1_555
H15 C18 1_555 1_555
C19 C18 1_555 1_555
H16 C19 1_555 1_555
C20 C19 1_555 1_555
H17 C20 1_555 1_555
C21 C20 1_555 1_555
H18 C21 1_555 1_555
C22 C17 1_555 1_555
H19 C22 1_555 1_555
C23 H20 1_555 1_555
C24 C23 1_555 1_555
H21 C24 1_555 1_555
C25 C24 1_555 1_555
H22 C25 1_555 1_555
C26 C25 1_555 1_555
H23 C26 1_555 1_555
C27 C26 1_555 1_555
H24 C27 1_555 1_555
C28 C23 1_555 1_555
C29 C28 1_555 1_555
H25 C29 1_555 1_555
H26 C29 1_555 1_555
C30 C31 1_555 1_555
C31 C32 1_555 1_555
C32 H27 1_555 1_555
C33 C32 1_555 1_555
H28 C33 1_555 1_555
C34 C33 1_555 1_555
H29 C34 1_555 1_555
C35 C34 1_555 1_555
H30 C35 1_555 1_555
C36 C31 1_555 1_555
C37 H31 1_555 1_555
H32 C37 1_555 1_555
C38 C37 1_555 1_555
H33 C38 1_555 1_555
H34 C38 1_555 1_555
C39 C40 1_555 1_555
C40 H35 1_555 1_555
C41 C40 1_555 1_555
H36 C41 1_555 1_555
C42 C41 1_555 1_555
H37 C42 1_555 1_555
C43 C42 1_555 1_555
H38 C43 1_555 1_555
C44 C39 1_555 1_555
C45 C44 1_555 1_555
C46 C45 1_555 1_555
H39 C46 1_555 1_555
C47 C46 1_555 1_555
H40 C47 1_555 1_555
C48 C47 1_555 1_555
H41 C48 1_555 1_555
C49 C48 1_555 1_555
H42 C49 1_555 1_555
C50 C45 1_555 1_555
C51 H43 1_555 1_555
H44 C51 1_555 1_555
C52 C51 1_555 1_555
H45 C52 1_555 1_555
H46 C52 1_555 1_555
C53 C54 1_555 1_555
C54 H47 1_555 1_555
C55 C54 1_555 1_555
H48 C55 1_555 1_555
C56 C55 1_555 1_555
H49 C56 1_555 1_555
C57 C56 1_555 1_555
H50 C57 1_555 1_555
C58 C53 1_555 1_555
C59 C58 1_555 1_555
C60 H51 1_555 1_555
H52 C60 1_555 1_555
C61 C60 1_555 1_555
C62 C61 1_555 1_555
H53 C62 1_555 1_555
C63 C62 1_555 1_555
H54 C63 1_555 1_555
C64 C63 1_555 1_555
H55 C64 1_555 1_555
C65 C64 1_555 1_555
H56 C65 1_555 1_555
C66 C61 1_555 1_555
H57 C66 1_555 1_555
H58 O19 1_555 1_555
H59 O19 1_555 1_555
H60 O20 1_555 1_555
H61 O20 1_555 1_555
H62 O21 1_555 1_555
H63 O21 1_555 1_555
N1 C15 1_555 1_555
H64 N1 1_555 1_555
N2 O4 1_555 1_555
N3 O7 1_555 1_555
N4 O10 1_555 1_555
N5 C29 1_555 1_555
H65 N5 1_555 1_555
N6 C59 1_555 1_555
H66 N6 1_555 1_555
O1 C6 1_555 1_555
O2 C8 1_555 1_555
O3 C15 1_555 1_555
O4 Nd1 1_555 1_555
O5 Nd1 1_555 1_555
O6 N2 1_555 1_555
O7 Nd1 1_555 1_555
O8 Nd1 1_555 1_555
O9 N3 1_555 1_555
O10 Nd1 1_555 1_555
O11 N4 1_555 1_555
O12 Nd1 1_555 1_555
O13 Nd1 1_555 1_555
O14 C36 1_555 1_555
O15 C38 1_555 1_555
O16 C50 1_555 1_555
O17 C52 1_555 1_555
O18 C59 1_555 1_555
Nd1A O3A 1_555 1_555
Nd1C O18 1_555 1_555
Nd1C_2 O13C 1_555 1_555
C1A C1 1_555 1_555
C2A C1A 1_555 1_555
H1A C2A 1_555 1_555
C3A C2A 1_555 1_555
H2A C3A 1_555 1_555
C4A C3A 1_555 1_555
H3A C4A 1_555 1_555
C5A C4A 1_555 1_555
H4A C5A 1_555 1_555
C6A C1A 1_555 1_555
C7A H5A 1_555 1_555
H6A C7A 1_555 1_555
C8A C7A 1_555 1_555
H7A C8A 1_555 1_555
H8A C8A 1_555 1_555
C9A C10A 1_555 1_555
C10A H9A 1_555 1_555
C11A C10A 1_555 1_555
H10A C11A 1_555 1_555
C12A C11A 1_555 1_555
H11A C12A 1_555 1_555
C13A C12A 1_555 1_555
H12A C13A 1_555 1_555
C14A C9A 1_555 1_555
C15A C14A 1_555 1_555
C16A H13A 1_555 1_555
H14A C16A 1_555 1_555
C17A C16A 1_555 1_555
C18A C17A 1_555 1_555
H15A C18A 1_555 1_555
C19A C18A 1_555 1_555
H16A C19A 1_555 1_555
C20A C19A 1_555 1_555
H17A C20A 1_555 1_555
C21A C20A 1_555 1_555
H18A C21A 1_555 1_555
C22A C17A 1_555 1_555
H19A C22A 1_555 1_555
C23C H20C 1_555 1_555
C24C C23C 1_555 1_555
H21C C24C 1_555 1_555
C25C C24C 1_555 1_555
H22C C25C 1_555 1_555
C26C C25C 1_555 1_555
H23C C26C 1_555 1_555
C27C C26C 1_555 1_555
H24C C27C 1_555 1_555
C28C C23C 1_555 1_555
C29C C28C 1_555 1_555
H25C C29C 1_555 1_555
H26C C29C 1_555 1_555
C30C C31C 1_555 1_555
C31C C32C 1_555 1_555
C32C H27C 1_555 1_555
C33C C32C 1_555 1_555
H28C C33C 1_555 1_555
C34C C33C 1_555 1_555
H29C C34C 1_555 1_555
C35C C34C 1_555 1_555
H30C C35C 1_555 1_555
C36C C31C 1_555 1_555
C37C H31C 1_555 1_555
H32C C37C 1_555 1_555
C38C C37C 1_555 1_555
H33C C38C 1_555 1_555
H34C C38C 1_555 1_555
C39C C40C 1_555 1_555
C40C H35C 1_555 1_555
C41C C40C 1_555 1_555
H36C C41C 1_555 1_555
C42C C41C 1_555 1_555
H37C C42C 1_555 1_555
C43C C42C 1_555 1_555
H38C C43C 1_555 1_555
C44C C39C 1_555 1_555
C45C C44C 1_555 1_555
C46C C45C 1_555 1_555
H39C C46C 1_555 1_555
C47C C46C 1_555 1_555
H40C C47C 1_555 1_555
C48C C47C 1_555 1_555
H41C C48C 1_555 1_555
C49C C48C 1_555 1_555
H42C C49C 1_555 1_555
C50C C45C 1_555 1_555
C51C H43C 1_555 1_555
H44C C51C 1_555 1_555
C52C C51C 1_555 1_555
H45C C52C 1_555 1_555
H46C C52C 1_555 1_555
C53C C54C 1_555 1_555
C54C H47C 1_555 1_555
C55C C54C 1_555 1_555
H48C C55C 1_555 1_555
C56C C55C 1_555 1_555
H49C C56C 1_555 1_555
C57C C56C 1_555 1_555
H50C C57C 1_555 1_555
C58C C53C 1_555 1_555
C59C C58C 1_555 1_555
C60C H51C 1_555 1_555
H52C C60C 1_555 1_555
C61C C60C 1_555 1_555
C62C C61C 1_555 1_555
H53C C62C 1_555 1_555
C63C C62C 1_555 1_555
H54C C63C 1_555 1_555
C64C C63C 1_555 1_555
H55C C64C 1_555 1_555
C65C C64C 1_555 1_555
H56C C65C 1_555 1_555
C66C C61C 1_555 1_555
H57C C66C 1_555 1_555
N1A C15A 1_555 1_555
H64A N1A 1_555 1_555
N2A O4A 1_555 1_555
N3A O7A 1_555 1_555
N4A O10A 1_555 1_555
N5C C29C 1_555 1_555
H65C N5C 1_555 1_555
N6C C59C 1_555 1_555
H66C N6C 1_555 1_555
O1A C6A 1_555 1_555
O2A C8A 1_555 1_555
O3A C15A 1_555 1_555
O4A Nd1A 1_555 1_555
O5A Nd1A 1_555 1_555
O6A N2A 1_555 1_555
O7A Nd1A 1_555 1_555
O8A Nd1A 1_555 1_555
O9A N3A 1_555 1_555
O10A Nd1A 1_555 1_555
O11A N4A 1_555 1_555
O12A Nd1A 1_555 1_555
O13C C30C 1_555 1_555
O13A Nd1A 1_555 1_555
O14C C36C 1_555 1_555
O15C C38C 1_555 1_555
O16C C50C 1_555 1_555
O17C C52C 1_555 1_555
O18C Nd1 1_555 1_555
O18B Nd1A 1_555 1_555
C5 C6 1_555 1_555
C7 O1 1_555 1_555
C9 O2 1_555 1_555
C13 C14 1_555 1_555
C16 N1 1_555 1_555
C21 C22 1_555 1_555
C27 C28 1_555 1_555
C30 N5 1_555 1_555
C30 O13 1_555 1_555
C35 C36 1_555 1_555
C37 O14 1_555 1_555
C39 O15 1_555 1_555
C43 C44 1_555 1_555
C49 C50 1_555 1_555
C51 O16 1_555 1_555
C53 O17 1_555 1_555
C57 C58 1_555 1_555
C60 N6 1_555 1_555
C65 C66 1_555 1_555
N2 O5 1_555 1_555
N3 O8 1_555 1_555
N4 O12 1_555 1_555
C5A C6A 1_555 1_555
C7A O1A 1_555 1_555
C9A O2A 1_555 1_555
C13A C14A 1_555 1_555
C16A N1A 1_555 1_555
C21A C22A 1_555 1_555
C27C C28C 1_555 1_555
C30C N5C 1_555 1_555
C35C C36C 1_555 1_555
C37C O14C 1_555 1_555
C39C O15C 1_555 1_555
C43C C44C 1_555 1_555
C49C C50C 1_555 1_555
C51C O16C 1_555 1_555
C53C O17C 1_555 1_555
C57C C58C 1_555 1_555
C59C O18C 1_555 1_555
C60C N6C 1_555 1_555
C65C C66C 1_555 1_555
N2A O5A 1_555 1_555
N3A O8A 1_555 1_555
N4A O12A 1_555 1_555

#END
