
#######################################################################
#
#                 Cambridge Crystallographic Data Centre
#                                CCDC 
#
#######################################################################
#
# If this CIF has been generated from an entry in the Cambridge 
# Structural Database, then it will include bibliographic, chemical, 
# crystal, experimental, refinement or atomic coordinate data resulting 
# from the CCDC's data processing and validation procedures.
#
#######################################################################

data_YUBCOO
_symmetry_cell_setting           monoclinic
_symmetry_space_group_name_H-M   'C 2/c'
_symmetry_Int_Tables_number      15
_space_group_name_Hall           '-C 2yn'
loop_
_symmetry_equiv_pos_site_id
_symmetry_equiv_pos_as_xyz
1 x,y,z
2 -x,y,1/2-z
3 1/2+x,1/2+y,z
4 1/2-x,1/2+y,1/2-z
5 -x,-y,-z
6 x,-y,1/2+z
7 1/2-x,1/2-y,-z
8 1/2+x,1/2-y,1/2+z
_cell_length_a                   19.645(4)
_cell_length_b                   7.1372(14)
_cell_length_c                   14.884(3)
_cell_angle_alpha                90
_cell_angle_beta                 114.42(3)
_cell_angle_gamma                90
_cell_volume                     1900.2
loop_
_atom_site_label
_atom_site_type_symbol
_atom_site_fract_x
_atom_site_fract_y
_atom_site_fract_z
Zn1 Zn 0.5000 0.18583(4) 0.2500
Co1 Co 0.5000 0.5000 0.5000
N1 N 0.51605(9) 0.7586(2) 0.44680(10)
N2 N 0.57993(9) 0.8560(2) 0.49444(11)
N3 N 0.57958(9) 1.0035(2) 0.44297(12)
N4 N 0.51497(9) 1.0059(2) 0.36043(11)
C1 C 0.41679(10) 0.4723(2) 0.26713(13)
C2 C 0.37323(10) 0.6503(3) 0.24057(13)
C3 C 0.30237(12) 0.6451(3) 0.16284(15)
H1 H 0.2853 0.5338 0.1283
C4 C 0.25700(12) 0.8018(3) 0.13605(17)
H2 H 0.2098 0.7956 0.0843
C5 C 0.28215(12) 0.9671(3) 0.18654(17)
H3 H 0.2515 1.0723 0.1696
C6 C 0.35303(11) 0.9775(3) 0.26256(15)
H4 H 0.3697 1.0903 0.2957
C7 C 0.39960(10) 0.8209(2) 0.28998(12)
C8 C 0.47650(10) 0.8543(2) 0.36484(12)
O1 O 0.41649(7) 0.37198(18) 0.19613(9)
O2 O 0.39596(8) 0.5976(2) 0.49901(10)
O3 O 0.45031(8) 0.42016(18) 0.35385(9)
H5 H 0.3954(17) 0.574(4) 0.5544(12)
H6 H 0.3933(19) 0.7160(15) 0.497(3)
Zn1_2 Zn 0.5000 1.18583(4) 0.2500
Zn1_3 Zn 0.5000 -0.81417(4) 0.2500
Co1_2 Co 0.5000 -0.5000 0.5000
N1_2 N 0.51605(9) -0.2414(2) 0.44680(10)
N1D N 0.48395(9) 0.2414(2) 0.55320(10)
N2_2 N 0.57993(9) -0.1440(2) 0.49444(11)
N3_2 N 0.57958(9) 0.0035(2) 0.44297(12)
N4_2 N 0.51497(9) 0.0059(2) 0.36043(11)
N4A N 0.48503(9) 0.0059(2) 0.13957(11)
C1_2 C 0.41679(10) -0.5277(2) 0.26713(13)
C2_2 C 0.37323(10) -0.3497(3) 0.24057(13)
C3_2 C 0.30237(12) -0.3549(3) 0.16284(15)
H1_2 H 0.2853 -0.4662 0.1283
C4_2 C 0.25700(12) -0.1982(3) 0.13605(17)
H2_2 H 0.2098 -0.2044 0.0843
C5_2 C 0.28215(12) -0.0329(3) 0.18654(17)
H3_2 H 0.2515 0.0723 0.1696
C6_2 C 0.35303(11) -0.0225(3) 0.26256(15)
H4_2 H 0.3697 0.0903 0.2957
C7_2 C 0.39960(10) -0.1791(2) 0.28998(12)
C8_2 C 0.47650(10) -0.1457(2) 0.36484(12)
O1_2 O 0.41649(7) -0.62802(18) 0.19613(9)
O1A O 0.58351(7) 0.37198(18) 0.30387(9)
O2D O 0.60404(8) 0.4024(2) 0.50099(10)
O3_2 O 0.45031(8) -0.57984(18) 0.35385(9)
O3D O 0.54969(8) 0.57984(18) 0.64615(9)
H5D H 0.6046(17) 0.426(4) 0.4456(12)
H6D H 0.6067(19) 0.2840(15) 0.503(3)
loop_
_geom_bond_atom_site_label_1
_geom_bond_atom_site_label_2
_geom_bond_site_symmetry_1
_geom_bond_site_symmetry_2
Zn1 O1 1_555 1_555
Co1 N1 1_555 1_555
N1 N2 1_555 1_555
N2 N3 1_555 1_555
N3 N4 1_555 1_555
N4 C8 1_555 1_555
C1 C2 1_555 1_555
C2 C3 1_555 1_555
C3 H1 1_555 1_555
C4 C3 1_555 1_555
H2 C4 1_555 1_555
C5 C4 1_555 1_555
H3 C5 1_555 1_555
C6 C5 1_555 1_555
H4 C6 1_555 1_555
C7 C2 1_555 1_555
C8 N1 1_555 1_555
O1 C1 1_555 1_555
O2 Co1 1_555 1_555
O3 Co1 1_555 1_555
H5 O2 1_555 1_555
H6 O2 1_555 1_555
Zn1_2 N4 1_555 1_555
Zn1_3 O1_2 1_555 1_555
Co1_2 N1_2 1_555 1_555
N1_2 N2_2 1_555 1_555
N1D Co1 1_555 1_555
N2_2 N3_2 1_555 1_555
N3_2 N4_2 1_555 1_555
N4_2 Zn1 1_555 1_555
N4A Zn1 1_555 1_555
C1_2 C2_2 1_555 1_555
C2_2 C3_2 1_555 1_555
C3_2 H1_2 1_555 1_555
C4_2 C3_2 1_555 1_555
H2_2 C4_2 1_555 1_555
C5_2 C4_2 1_555 1_555
H3_2 C5_2 1_555 1_555
C6_2 C5_2 1_555 1_555
H4_2 C6_2 1_555 1_555
C7_2 C2_2 1_555 1_555
C8_2 N1_2 1_555 1_555
O1_2 C1_2 1_555 1_555
O1A Zn1 1_555 1_555
O2D Co1 1_555 1_555
O3_2 Co1_2 1_555 1_555
O3D Co1 1_555 1_555
H5D O2D 1_555 1_555
H6D O2D 1_555 1_555
C1 O3 1_555 1_555
C6 C7 1_555 1_555
C7 C8 1_555 1_555
N4_2 C8_2 1_555 1_555
C1_2 O3_2 1_555 1_555
C6_2 C7_2 1_555 1_555
C7_2 C8_2 1_555 1_555

#END
