
#######################################################################
#
#                 Cambridge Crystallographic Data Centre
#                                CCDC 
#
#######################################################################
#
# If this CIF has been generated from an entry in the Cambridge 
# Structural Database, then it will include bibliographic, chemical, 
# crystal, experimental, refinement or atomic coordinate data resulting 
# from the CCDC's data processing and validation procedures.
#
#######################################################################

data_YUBHOU
_symmetry_cell_setting           triclinic
_symmetry_space_group_name_H-M   'P -1'
_symmetry_Int_Tables_number      2
_space_group_name_Hall           '-P 1'
loop_
_symmetry_equiv_pos_site_id
_symmetry_equiv_pos_as_xyz
1 x,y,z
2 -x,-y,-z
_cell_length_a                   8.6927(17)
_cell_length_b                   9.6891(19)
_cell_length_c                   14.739(3)
_cell_angle_alpha                100.47(3)
_cell_angle_beta                 93.41(3)
_cell_angle_gamma                110.83(3)
_cell_volume                     1130.48
loop_
_atom_site_label
_atom_site_type_symbol
_atom_site_fract_x
_atom_site_fract_y
_atom_site_fract_z
Ni1 Ni -0.03914(6) 0.68438(6) 0.27961(3)
Ni2 Ni 0.5000 1.0000 0.5000
Ni3 Ni -0.5000 0.5000 0.0000
N1 N 0.0918(6) 0.9506(6) 0.1904(4)
N2 N -0.3180(4) 0.5698(4) 0.1200(2)
N3 N -0.1966(5) 0.4418(5) 0.3856(3)
N4 N 0.2685(4) 0.8430(4) 0.4196(2)
N5 N -0.4280(4) 0.3217(4) -0.0417(2)
H1 H -0.3538 0.3304 -0.0010
N6 N -0.3150(4) 0.6210(4) -0.0755(2)
N7 N -0.6688(4) 0.1466(4) 0.0158(3)
N8 N 0.6346(4) 0.8899(4) 0.4198(2)
N9 N 0.5382(4) 1.1361(4) 0.4058(2)
H2 H 0.6210 1.2079 0.4269
N10 N 0.3430(5) 1.2503(4) 0.4724(2)
C1 C 0.0470(5) 0.8470(6) 0.2236(3)
C2 C -0.2154(5) 0.6065(5) 0.1826(3)
C3 C -0.1360(5) 0.5301(5) 0.3430(3)
C4 C 0.1480(5) 0.7753(5) 0.3692(3)
C5 C -0.5599(5) 0.1695(5) -0.0564(3)
H3 H -0.6277 0.1497 -0.1155
H4 H -0.5078 0.0954 -0.0612
C6 C -0.3393(6) 0.3557(5) -0.1225(3)
H5 H -0.4186 0.3377 -0.1766
H6 H -0.2776 0.2903 -0.1367
C7 C -0.2204(5) 0.5211(5) -0.0990(3)
H7 H -0.1382 0.5377 -0.0466
H8 H -0.1628 0.5451 -0.1519
C8 C -0.3748(6) 0.6682(5) -0.1577(3)
H9 H -0.4718 0.5873 -0.1945
H10 H -0.2885 0.6981 -0.1970
C9 C -0.5822(6) 0.1973(5) 0.1128(3)
H11 H -0.4631 0.2275 0.1131
H12 H -0.6202 0.1165 0.1463
C10 C -0.2167(5) 0.7749(5) -0.0164(3)
H13 H -0.1829 0.7684 0.0461
H14 H -0.1186 0.8257 -0.0434
C11 C 0.4063(6) 1.1956(5) 0.3885(3)
H15 H 0.4495 1.2780 0.3568
H16 H 0.3141 1.1162 0.3470
C12 C 0.4719(6) 1.3559(5) 0.5497(3)
H17 H 0.4503 1.4474 0.5704
H18 H 0.5814 1.3831 0.5302
C13 C 0.5405(6) 0.7323(5) 0.3714(3)
H19 H 0.5990 0.6990 0.3233
H20 H 0.4312 0.7199 0.3435
C14 C 0.7045(6) 0.9889(6) 0.3544(3)
H21 H 0.7318 0.9312 0.3012
H22 H 0.8056 1.0715 0.3853
C15 C 0.5785(6) 1.0523(5) 0.3214(3)
H23 H 0.6252 1.1197 0.2804
H24 H 0.4789 0.9707 0.2876
C16 C 0.7592(6) 0.8688(5) 0.4826(3)
H25 H 0.8213 0.9614 0.5282
H26 H 0.8362 0.8361 0.4479
N5A N -0.5720(4) 0.6783(4) 0.0417(2)
H1A H -0.6462 0.6696 0.0010
N6A N -0.6850(4) 0.3790(4) 0.0755(2)
N7A N -0.3312(4) 0.8534(4) -0.0158(3)
C5A C -0.4401(5) 0.8305(5) 0.0564(3)
H3A H -0.3723 0.8503 0.1155
H4A H -0.4922 0.9046 0.0612
C6A C -0.6607(6) 0.6443(5) 0.1225(3)
H5A H -0.5814 0.6623 0.1766
H6A H -0.7224 0.7097 0.1367
C7A C -0.7796(5) 0.4789(5) 0.0990(3)
H7A H -0.8618 0.4623 0.0466
H8A H -0.8372 0.4549 0.1519
C8A C -0.6252(6) 0.3318(5) 0.1577(3)
H9A H -0.5282 0.4127 0.1945
H10A H -0.7115 0.3019 0.1970
C9A C -0.4178(6) 0.8027(5) -0.1128(3)
H11A H -0.5369 0.7725 -0.1131
H12A H -0.3798 0.8835 -0.1463
C10A C -0.7833(5) 0.2251(5) 0.0164(3)
H13A H -0.8171 0.2316 -0.0461
H14A H -0.8814 0.1743 0.0434
N8A N 0.3654(4) 1.1101(4) 0.5802(2)
N9A N 0.4618(4) 0.8639(4) 0.5942(2)
H2A H 0.3790 0.7921 0.5731
N10A N 0.6570(5) 0.7497(4) 0.5276(2)
C11A C 0.5937(6) 0.8044(5) 0.6115(3)
H15A H 0.5505 0.7220 0.6432
H16A H 0.6859 0.8838 0.6530
C12A C 0.5281(6) 0.6441(5) 0.4503(3)
H17A H 0.5497 0.5526 0.4296
H18A H 0.4186 0.6169 0.4698
C13A C 0.4595(6) 1.2677(5) 0.6286(3)
H19A H 0.4010 1.3010 0.6767
H20A H 0.5688 1.2801 0.6565
C14A C 0.2955(6) 1.0111(6) 0.6456(3)
H21A H 0.2682 1.0688 0.6988
H22A H 0.1944 0.9285 0.6147
C15A C 0.4215(6) 0.9477(5) 0.6786(3)
H23A H 0.3748 0.8803 0.7196
H24A H 0.5211 1.0293 0.7124
C16A C 0.2408(6) 1.1312(5) 0.5174(3)
H25A H 0.1787 1.0386 0.4718
H26A H 0.1638 1.1639 0.5521
Ni1A Ni -0.96086(6) 0.31562(6) -0.27961(3)
N1A N -1.0918(6) 0.0494(6) -0.1904(4)
N2A N -0.6820(4) 0.4302(4) -0.1200(2)
N3A N -0.8034(5) 0.5582(5) -0.3856(3)
N4A N -1.2685(4) 0.1570(4) -0.4196(2)
C1A C -1.0470(5) 0.1530(6) -0.2236(3)
C2A C -0.7846(5) 0.3935(5) -0.1826(3)
C3A C -0.8640(5) 0.4699(5) -0.3430(3)
C4A C -1.1480(5) 0.2247(5) -0.3692(3)
Ni2_2 Ni -1.5000 0.0000 -0.5000
N4A_2 N 0.7315(4) 1.1570(4) 0.5804(2)
O1 O 0.8067(5) 0.2032(4) 0.0414(3)
O2 O 0.1191(8) 0.3605(7) 0.3833(4)
O3 O 0.9394(6) 0.1807(6) 0.2129(3)
loop_
_geom_bond_atom_site_label_1
_geom_bond_atom_site_label_2
_geom_bond_site_symmetry_1
_geom_bond_site_symmetry_2
Ni1 C1 1_555 1_555
Ni2 N4 1_555 1_555
Ni3 N2 1_555 1_555
N1 C1 1_555 1_555
N2 C2 1_555 1_555
N3 C3 1_555 1_555
N4 C4 1_555 1_555
N5 Ni3 1_555 1_555
H1 N5 1_555 1_555
N6 Ni3 1_555 1_555
N7 C5 1_555 1_555
N8 Ni2 1_555 1_555
N9 Ni2 1_555 1_555
H2 N9 1_555 1_555
N10 C11 1_555 1_555
C2 Ni1 1_555 1_555
C3 Ni1 1_555 1_555
C4 Ni1 1_555 1_555
C5 N5 1_555 1_555
H3 C5 1_555 1_555
H4 C5 1_555 1_555
C6 N5 1_555 1_555
H5 C6 1_555 1_555
H6 C6 1_555 1_555
C7 N6 1_555 1_555
H7 C7 1_555 1_555
H8 C7 1_555 1_555
C8 N6 1_555 1_555
H9 C8 1_555 1_555
H10 C8 1_555 1_555
C9 N7 1_555 1_555
H11 C9 1_555 1_555
H12 C9 1_555 1_555
C10 N6 1_555 1_555
H13 C10 1_555 1_555
H14 C10 1_555 1_555
C11 N9 1_555 1_555
H15 C11 1_555 1_555
H16 C11 1_555 1_555
C12 N10 1_555 1_555
H17 C12 1_555 1_555
H18 C12 1_555 1_555
C13 N8 1_555 1_555
H19 C13 1_555 1_555
H20 C13 1_555 1_555
C14 N8 1_555 1_555
H21 C14 1_555 1_555
H22 C14 1_555 1_555
C15 N9 1_555 1_555
H23 C15 1_555 1_555
H24 C15 1_555 1_555
C16 N8 1_555 1_555
H25 C16 1_555 1_555
H26 C16 1_555 1_555
N5A Ni3 1_555 1_555
H1A N5A 1_555 1_555
N6A Ni3 1_555 1_555
N7A C10 1_555 1_555
C5A N5A 1_555 1_555
H3A C5A 1_555 1_555
H4A C5A 1_555 1_555
C6A N5A 1_555 1_555
H5A C6A 1_555 1_555
H6A C6A 1_555 1_555
C7A N6A 1_555 1_555
H7A C7A 1_555 1_555
H8A C7A 1_555 1_555
C8A C9 1_555 1_555
H9A C8A 1_555 1_555
H10A C8A 1_555 1_555
C9A C8 1_555 1_555
H11A C9A 1_555 1_555
H12A C9A 1_555 1_555
C10A N7 1_555 1_555
H13A C10A 1_555 1_555
H14A C10A 1_555 1_555
N8A Ni2 1_555 1_555
N9A Ni2 1_555 1_555
H2A N9A 1_555 1_555
N10A C16 1_555 1_555
C11A N9A 1_555 1_555
H15A C11A 1_555 1_555
H16A C11A 1_555 1_555
C12A C13 1_555 1_555
H17A C12A 1_555 1_555
H18A C12A 1_555 1_555
C13A C12 1_555 1_555
H19A C13A 1_555 1_555
H20A C13A 1_555 1_555
C14A N8A 1_555 1_555
H21A C14A 1_555 1_555
H22A C14A 1_555 1_555
C15A N9A 1_555 1_555
H23A C15A 1_555 1_555
H24A C15A 1_555 1_555
C16A N10 1_555 1_555
H25A C16A 1_555 1_555
H26A C16A 1_555 1_555
Ni1A C1A 1_555 1_555
N1A C1A 1_555 1_555
N2A Ni3 1_555 1_555
N3A C3A 1_555 1_555
N4A C4A 1_555 1_555
C2A Ni1A 1_555 1_555
C3A Ni1A 1_555 1_555
C4A Ni1A 1_555 1_555
Ni2_2 N4A 1_555 1_555
N4A_2 Ni2 1_555 1_555
C6 C7 1_555 1_555
C14 C15 1_555 1_555
N6A C8A 1_555 1_555
N6A C10A 1_555 1_555
N7A C5A 1_555 1_555
N7A C9A 1_555 1_555
C6A C7A 1_555 1_555
N8A C13A 1_555 1_555
N8A C16A 1_555 1_555
N10A C11A 1_555 1_555
N10A C12A 1_555 1_555
C14A C15A 1_555 1_555
N2A C2A 1_555 1_555

#END
