
#######################################################################
#
#                 Cambridge Crystallographic Data Centre
#                                CCDC 
#
#######################################################################
#
# If this CIF has been generated from an entry in the Cambridge 
# Structural Database, then it will include bibliographic, chemical, 
# crystal, experimental, refinement or atomic coordinate data resulting 
# from the CCDC's data processing and validation procedures.
#
#######################################################################

data_YUBHIO
_symmetry_cell_setting           monoclinic
_symmetry_space_group_name_H-M   'P 21/n'
_symmetry_Int_Tables_number      14
_space_group_name_Hall           '-P 2yn'
loop_
_symmetry_equiv_pos_site_id
_symmetry_equiv_pos_as_xyz
1 x,y,z
2 1/2-x,1/2+y,1/2-z
3 -x,-y,-z
4 1/2+x,1/2-y,1/2+z
_cell_length_a                   9.812(2)
_cell_length_b                   13.179(3)
_cell_length_c                   20.122(4)
_cell_angle_alpha                90
_cell_angle_beta                 102.78(3)
_cell_angle_gamma                90
_cell_volume                     2537.56
loop_
_atom_site_label
_atom_site_type_symbol
_atom_site_fract_x
_atom_site_fract_y
_atom_site_fract_z
Ni1 Ni 0.74619(4) 0.72176(3) 0.10251(2)
Ni2 Ni 0.49857(4) 0.73355(3) -0.14898(2)
C1 C 0.5902(3) 0.7198(3) -0.05790(16)
C2 C 0.4031(3) 0.7515(3) -0.23878(16)
C3 C 0.3332(4) 0.7649(3) -0.12193(17)
C4 C 0.6605(4) 0.6977(3) -0.17900(17)
N1 N 0.6450(3) 0.7145(2) -0.00116(14)
N2 N 0.7581(4) 0.6778(4) -0.19915(19)
N3 N 0.2267(4) 0.7800(3) -0.10872(19)
N4 N 0.6697(4) 0.5747(3) 0.12033(15)
N5 N 0.5724(3) 0.7955(3) 0.12281(15)
N6 N 0.8178(3) 0.8647(3) 0.08563(15)
N7 N 1.0609(3) 0.8077(4) 0.09333(17)
N8 N 0.9252(4) 0.6501(3) 0.08115(15)
N9 N 0.4308(4) 0.6377(3) 0.11093(17)
C5 C 0.5809(5) 0.8995(3) 0.0967(2)
H1 H 0.5231 0.9447 0.1168
H2 H 0.5465 0.9003 0.0477
C6 C 1.0542(4) 0.7050(5) 0.1171(2)
H3 H 1.0570 0.7062 0.1656
H4 H 1.1357 0.6681 0.1105
C7 C 0.9713(4) 0.8827(4) 0.1119(2)
H5 H 0.9949 0.9480 0.0952
H6 H 0.9900 0.8867 0.1612
C8 C 0.9551(4) 0.7428(4) -0.0247(2)
H7 H 0.9776 0.7321 -0.0688
H8 H 0.8671 0.7792 -0.0320
C9 C 0.9385(5) 0.6391(4) 0.0082(2)
H9 H 0.8561 0.6053 -0.0179
H10 H 1.0190 0.5971 0.0067
C10 C 0.5190(5) 0.5687(4) 0.08395(19)
H11 H 0.5113 0.5837 0.0361
H12 H 0.4858 0.5000 0.0873
C11 C 0.7308(5) 0.9355(3) 0.1144(2)
H13 H 0.7371 1.0029 0.0959
H14 H 0.7635 0.9389 0.1635
C12 C 0.6735(5) 0.5390(3) 0.1915(2)
H15 H 0.7688 0.5424 0.2180
H16 H 0.6437 0.4687 0.1901
C13 C 0.4368(4) 0.7447(4) 0.0955(2)
H17 H 0.3651 0.7795 0.1131
H18 H 0.4140 0.7527 0.0463
C14 C 0.5805(4) 0.6020(3) 0.22589(18)
H19 H 0.6209 0.6691 0.2352
H20 H 0.5766 0.5709 0.2691
C15 C 0.4328(5) 0.6121(4) 0.1826(2)
H21 H 0.3834 0.5487 0.1841
H22 H 0.3838 0.6645 0.2019
C16 C 1.0696(5) 0.8068(6) 0.0198(2)
H23 H 1.1601 0.7804 0.0164
H24 H 1.0627 0.8759 0.0028
C17 C 0.9124(5) 0.5485(4) 0.1091(2)
H25 H 0.9422 0.5507 0.1583
H26 H 0.9734 0.5019 0.0921
C18 C 0.7619(6) 0.5097(4) 0.0892(2)
H27 H 0.7301 0.5104 0.0400
H28 H 0.7579 0.4403 0.1048
N10 N 0.3447(3) 0.7634(2) -0.29446(14)
H29 H 0.791(5) 0.876(4) 0.0401(7)
H30 H 0.580(4) 0.805(3) 0.1679(7)
Ni1C Ni 0.24619(4) 0.77824(3) -0.39749(2)
N10C N 0.8447(3) 0.7366(2) 0.20554(14)
O1 O 0.0349(3) 0.6501(3) 0.77325(17)
N11 N 0.7442(5) 0.9603(4) 0.9388(2)
C19 C 0.7303(5) 0.9645(4) 0.8808(2)
C20 C 0.7138(7) 0.9732(5) 0.8077(3)
H31 H 0.7469 1.0384 0.7969
H32 H 0.6168 0.9662 0.7859
H33 H 0.7667 0.9208 0.7919
loop_
_geom_bond_atom_site_label_1
_geom_bond_atom_site_label_2
_geom_bond_site_symmetry_1
_geom_bond_site_symmetry_2
Ni1 N1 1_555 1_555
Ni2 C1 1_555 1_555
C1 N1 1_555 1_555
C2 Ni2 1_555 1_555
C3 Ni2 1_555 1_555
C4 Ni2 1_555 1_555
N2 C4 1_555 1_555
N3 C3 1_555 1_555
N4 Ni1 1_555 1_555
N5 Ni1 1_555 1_555
N6 Ni1 1_555 1_555
N7 C6 1_555 1_555
N8 Ni1 1_555 1_555
N9 C10 1_555 1_555
C5 N5 1_555 1_555
H1 C5 1_555 1_555
H2 C5 1_555 1_555
C6 N8 1_555 1_555
H3 C6 1_555 1_555
H4 C6 1_555 1_555
C7 N6 1_555 1_555
H5 C7 1_555 1_555
H6 C7 1_555 1_555
C8 H7 1_555 1_555
H8 C8 1_555 1_555
C9 N8 1_555 1_555
H9 C9 1_555 1_555
H10 C9 1_555 1_555
C10 N4 1_555 1_555
H11 C10 1_555 1_555
H12 C10 1_555 1_555
C11 N6 1_555 1_555
H13 C11 1_555 1_555
H14 C11 1_555 1_555
C12 N4 1_555 1_555
H15 C12 1_555 1_555
H16 C12 1_555 1_555
C13 N5 1_555 1_555
H17 C13 1_555 1_555
H18 C13 1_555 1_555
C14 C12 1_555 1_555
H19 C14 1_555 1_555
H20 C14 1_555 1_555
C15 N9 1_555 1_555
H21 C15 1_555 1_555
H22 C15 1_555 1_555
C16 N7 1_555 1_555
H23 C16 1_555 1_555
H24 C16 1_555 1_555
C17 N8 1_555 1_555
H25 C17 1_555 1_555
H26 C17 1_555 1_555
C18 N4 1_555 1_555
H27 C18 1_555 1_555
H28 C18 1_555 1_555
N10 C2 1_555 1_555
H29 N6 1_555 1_555
H30 N5 1_555 1_555
N11 C19 1_555 1_555
C19 C20 1_555 1_555
C20 H31 1_555 1_555
H32 C20 1_555 1_555
H33 C20 1_555 1_555
Ni1C N10 1_555 1_555
N10C Ni1 1_555 1_555
N7 C7 1_555 1_555
N9 C13 1_555 1_555
C5 C11 1_555 1_555
C8 C9 1_555 1_555
C8 C16 1_555 1_555
C14 C15 1_555 1_555
C17 C18 1_555 1_555

#END
