
#######################################################################
#
#                 Cambridge Crystallographic Data Centre
#                                CCDC 
#
#######################################################################
#
# If this CIF has been generated from an entry in the Cambridge 
# Structural Database, then it will include bibliographic, chemical, 
# crystal, experimental, refinement or atomic coordinate data resulting 
# from the CCDC's data processing and validation procedures.
#
#######################################################################

data_YUBQUI
_symmetry_cell_setting           monoclinic
_symmetry_space_group_name_H-M   'P 21/c'
_symmetry_Int_Tables_number      14
_space_group_name_Hall           '-P 2ybc'
loop_
_symmetry_equiv_pos_site_id
_symmetry_equiv_pos_as_xyz
1 x,y,z
2 -x,1/2+y,1/2-z
3 -x,-y,-z
4 x,1/2-y,1/2+z
_cell_length_a                   17.0160(6)
_cell_length_b                   12.6500(5)
_cell_length_c                   13.5160(8)
_cell_angle_alpha                90
_cell_angle_beta                 91.532(2)
_cell_angle_gamma                90
_cell_volume                     2908.31
loop_
_atom_site_label
_atom_site_type_symbol
_atom_site_fract_x
_atom_site_fract_y
_atom_site_fract_z
Fe1 Fe 0.24712(7) 0.50227(10) 0.28396(9)
Cu1 Cu 0.34802(7) 0.80319(10) 0.49002(8)
Cu2 Cu 0.14827(7) 0.23953(10) 0.03606(8)
N1 N 0.3471(4) 0.4182(6) 0.2953(5)
N2 N 0.1447(4) 0.5823(6) 0.2679(5)
N3 N 0.2856(5) 0.6041(9) 0.3814(7)
N4 N 0.2923(5) 0.5857(6) 0.1753(6)
N5 N 0.2072(4) 0.3992(6) 0.1859(5)
N6 N 0.2043(6) 0.4203(8) 0.3906(7)
N7 N 0.4676(4) 0.7796(6) 0.4563(5)
N8 N 0.3062(5) 0.9003(7) 0.3664(6)
N9 N 0.0275(4) 0.2498(7) 0.0075(6)
C1 C 0.4179(6) 0.4675(8) 0.2942(6)
H1 H 0.4197 0.5408 0.2904
C2 C 0.4883(5) 0.4100(8) 0.2986(7)
H2 H 0.5360 0.4460 0.2978
C3 C 0.4882(6) 0.3006(9) 0.3042(7)
H3 H 0.5342 0.2609 0.3083
C4 C 0.4146(5) 0.2556(8) 0.3031(6)
C5 C 0.3461(5) 0.3126(7) 0.3006(6)
H4 H 0.2982 0.2774 0.3025
C6 C 0.0753(5) 0.5298(8) 0.2607(7)
H5 H 0.0756 0.4563 0.2626
C7 C 0.0032(6) 0.5828(8) 0.2503(7)
H6 H -0.0434 0.5446 0.2451
C8 C 0.0017(6) 0.6927(8) 0.2479(7)
H7 H -0.0451 0.7303 0.2409
C9 C 0.0728(6) 0.7422(8) 0.2564(7)
C10 C 0.1429(6) 0.6879(8) 0.2649(6)
H8 H 0.1898 0.7254 0.2687
C11 C 0.3086(5) 0.6676(7) 0.4337(6)
C12 C 0.3182(5) 0.6308(9) 0.1084(7)
C13 C 0.1856(6) 0.3391(8) 0.1293(7)
C14 C 0.1804(5) 0.3697(8) 0.4548(6)
C15 C 0.5194(6) 0.8600(8) 0.4470(6)
H9 H 0.5005 0.9290 0.4452
C16 C 0.5987(6) 0.8434(9) 0.4403(7)
H10 H 0.6326 0.9005 0.4340
C17 C 0.6285(5) 0.7401(9) 0.4428(7)
H11 H 0.6821 0.7262 0.4392
C18 C 0.5739(5) 0.6606(8) 0.4509(7)
C19 C 0.4952(6) 0.6811(8) 0.4569(6)
H12 H 0.4603 0.6250 0.4615
C20 C 0.3144(5) 0.8689(8) 0.2739(6)
H13 H 0.3422 0.8068 0.2633
C21 C 0.2846(6) 0.9216(9) 0.1921(7)
H14 H 0.2927 0.8960 0.1287
C22 C 0.2433(6) 1.0116(9) 0.2058(7)
H15 H 0.2227 1.0502 0.1526
C23 C 0.2332(6) 1.0430(9) 0.3011(8)
C24 C 0.2656(6) 0.9893(8) 0.3804(7)
H16 H 0.2594 1.0149 0.4442
C25 C -0.0156(6) 0.1629(9) -0.0100(8)
H17 H 0.0100 0.0983 -0.0155
C26 C -0.0967(7) 0.1656(12) -0.0204(8)
H18 H -0.1253 0.1039 -0.0313
C27 C -0.1343(6) 0.2631(12) -0.0141(8)
H19 H -0.1887 0.2689 -0.0207
C28 C -0.0884(7) 0.3485(10) 0.0021(9)
C29 C -0.0087(6) 0.3426(8) 0.0150(7)
H20 H 0.0203 0.4033 0.0290
F1 F 0.4092(3) 0.1475(5) 0.3067(4)
F2 F 0.0764(4) 0.8511(5) 0.2552(4)
F3 F 0.1914(4) 1.1338(5) 0.3225(5)
F4 F 0.5985(3) 0.5599(5) 0.4532(4)
F5 F -0.1178(5) 0.4488(8) 0.0121(7)
Cu1C Cu 0.34802(7) 0.69681(10) -0.00998(8)
Cu2C Cu 0.14827(7) 0.26047(10) 0.53606(8)
C12C C 0.3182(5) 0.8692(9) 0.6084(7)
C14C C 0.1804(5) 0.1303(8) -0.0452(6)
loop_
_geom_bond_atom_site_label_1
_geom_bond_atom_site_label_2
_geom_bond_site_symmetry_1
_geom_bond_site_symmetry_2
Fe1 N1 1_555 1_555
Cu1 N7 1_555 1_555
Cu2 N9 1_555 1_555
N1 C1 1_555 1_555
N2 Fe1 1_555 1_555
N3 Fe1 1_555 1_555
N4 Fe1 1_555 1_555
N5 Fe1 1_555 1_555
N6 Fe1 1_555 1_555
N7 C15 1_555 1_555
N8 Cu1 1_555 1_555
N9 C25 1_555 1_555
C1 H1 1_555 1_555
C2 C1 1_555 1_555
H2 C2 1_555 1_555
C3 C2 1_555 1_555
H3 C3 1_555 1_555
C4 C3 1_555 1_555
C5 N1 1_555 1_555
H4 C5 1_555 1_555
C6 N2 1_555 1_555
H5 C6 1_555 1_555
C7 C6 1_555 1_555
H6 C7 1_555 1_555
C8 C7 1_555 1_555
H7 C8 1_555 1_555
C9 C8 1_555 1_555
C10 N2 1_555 1_555
H8 C10 1_555 1_555
C11 Cu1 1_555 1_555
C12 N4 1_555 1_555
C13 Cu2 1_555 1_555
C14 N6 1_555 1_555
C15 H9 1_555 1_555
C16 C15 1_555 1_555
H10 C16 1_555 1_555
C17 C16 1_555 1_555
H11 C17 1_555 1_555
C18 C17 1_555 1_555
C19 N7 1_555 1_555
H12 C19 1_555 1_555
C20 N8 1_555 1_555
H13 C20 1_555 1_555
C21 C20 1_555 1_555
H14 C21 1_555 1_555
C22 C21 1_555 1_555
H15 C22 1_555 1_555
C23 C22 1_555 1_555
C24 N8 1_555 1_555
H16 C24 1_555 1_555
C25 H17 1_555 1_555
C26 C25 1_555 1_555
H18 C26 1_555 1_555
C27 C26 1_555 1_555
H19 C27 1_555 1_555
C28 C27 1_555 1_555
C29 N9 1_555 1_555
H20 C29 1_555 1_555
F1 C4 1_555 1_555
F2 C9 1_555 1_555
F3 C23 1_555 1_555
F4 C18 1_555 1_555
F5 C28 1_555 1_555
Cu1C C12 1_555 1_555
Cu2C C14 1_555 1_555
C12C Cu1 1_555 1_555
C14C Cu2 1_555 1_555
N3 C11 1_555 1_555
N5 C13 1_555 1_555
C4 C5 1_555 1_555
C9 C10 1_555 1_555
C18 C19 1_555 1_555
C23 C24 1_555 1_555
C28 C29 1_555 1_555

#END
