
#######################################################################
#
#                 Cambridge Crystallographic Data Centre
#                                CCDC 
#
#######################################################################
#
# If this CIF has been generated from an entry in the Cambridge 
# Structural Database, then it will include bibliographic, chemical, 
# crystal, experimental, refinement or atomic coordinate data resulting 
# from the CCDC's data processing and validation procedures.
#
#######################################################################

data_YUBQUI01
_symmetry_cell_setting           monoclinic
_symmetry_space_group_name_H-M   'P 21/c'
_symmetry_Int_Tables_number      14
_space_group_name_Hall           '-P 2ybc'
loop_
_symmetry_equiv_pos_site_id
_symmetry_equiv_pos_as_xyz
1 x,y,z
2 -x,1/2+y,1/2-z
3 -x,-y,-z
4 x,1/2-y,1/2+z
_cell_length_a                   17.2960(5)
_cell_length_b                   13.0270(6)
_cell_length_c                   13.8180(9)
_cell_angle_alpha                90
_cell_angle_beta                 92.181(1)
_cell_angle_gamma                90
_cell_volume                     3111.15
loop_
_atom_site_label
_atom_site_type_symbol
_atom_site_fract_x
_atom_site_fract_y
_atom_site_fract_z
Fe1 Fe 0.25382(7) 0.00269(9) 0.22839(7)
Cu1 Cu 0.15269(6) 0.29933(8) 0.01836(6)
Cu2 Cu 0.35600(6) -0.26737(9) 0.46948(7)
F1 F 0.0874(3) -0.3507(5) 0.1953(4)
F2 F 0.4285(4) 0.3493(4) 0.2668(4)
F3 F -0.0995(3) 0.0710(5) 0.0479(4)
F4 F 0.3002(4) 0.6309(5) 0.1826(5)
F5 F 0.6104(4) -0.0473(6) 0.4700(5)
N1 N 0.1469(4) -0.0874(6) 0.2094(4)
N2 N 0.3624(4) 0.0882(6) 0.2498(4)
N3 N 0.2138(4) 0.1088(6) 0.1256(5)
N4 N 0.2026(4) 0.0879(5) 0.3391(5)
N5 N 0.2938(4) -0.1058(5) 0.3283(5)
N6 N 0.3035(4) -0.0821(6) 0.1179(5)
N7 N 0.0324(4) 0.2814(7) 0.0457(4)
N8 N 0.1929(4) 0.4008(7) 0.1406(5)
N9 N 0.4759(4) -0.2518(7) 0.4779(5)
C1 C 0.0773(6) -0.0417(8) 0.2057(5)
H1 H 0.0752 0.0296 0.2082
C2 C 0.0093(6) -0.0952(10) 0.1985(6)
H2 H -0.0379 -0.0608 0.1959
C3 C 0.0116(6) -0.1993(10) 0.1950(6)
H3 H -0.0338 -0.2375 0.1907
C4 C 0.0823(7) -0.2468(8) 0.1981(6)
C5 C 0.1482(6) -0.1884(8) 0.2035(5)
H4 H 0.1959 -0.2214 0.2029
C6 C 0.4312(6) 0.0418(8) 0.2555(5)
H5 H 0.4325 -0.0295 0.2524
C7 C 0.5003(6) 0.0936(9) 0.2659(6)
H6 H 0.5465 0.0570 0.2694
C8 C 0.5016(6) 0.1983(9) 0.2709(6)
H7 H 0.5474 0.2353 0.2790
C9 C 0.4319(7) 0.2441(8) 0.2633(6)
C10 C 0.3639(6) 0.1911(8) 0.2528(5)
H8 H 0.3175 0.2272 0.2476
C11 C 0.1910(4) 0.1728(7) 0.0782(5)
C12 C 0.1786(5) 0.1322(7) 0.4041(6)
C13 C 0.3180(5) -0.1676(7) 0.3807(6)
C14 C 0.3250(5) -0.1331(7) 0.0577(6)
C15 C -0.0169(7) 0.3573(9) 0.0510(5)
H9 H 0.0029 0.4237 0.0515
C16 C -0.0969(7) 0.3460(11) 0.0560(6)
H10 H -0.1294 0.4025 0.0605
C17 C -0.1256(6) 0.2476(13) 0.0538(6)
H11 H -0.1785 0.2354 0.0556
C18 C -0.0758(7) 0.1702(10) 0.0492(6)
C19 C 0.0030(5) 0.1857(8) 0.0458(5)
H12 H 0.0361 0.1296 0.0436
C20 C 0.1869(5) 0.3697(8) 0.2302(8)
H13 H 0.1608 0.3086 0.2409
C21 C 0.2176(6) 0.4230(11) 0.3109(8)
H14 H 0.2129 0.3980 0.3734
C22 C 0.2550(6) 0.5138(10) 0.2937(9)
H15 H 0.2752 0.5535 0.3446
C23 C 0.2615(6) 0.5432(8) 0.2022(9)
C24 C 0.2298(6) 0.4891(9) 0.1259(9)
C25 C 0.5237(6) -0.3296(8) 0.4911(6)
H16 H 0.5026 -0.3948 0.4979
C26 C 0.6043(7) -0.3199(10) 0.4957(6)
H17 H 0.6359 -0.3774 0.5020
C27 C 0.6352(7) -0.2238(11) 0.4906(7)
H18 H 0.6884 -0.2133 0.4958
C28 C 0.5850(7) -0.1438(11) 0.4777(6)
C29 C 0.5067(6) -0.1578(8) 0.4697(6)
H19 H 0.4744 -0.1016 0.4586
H20 H 0.231(5) 0.502(7) 0.065(6)
Cu1C Cu 0.15269(6) 0.20067(8) 0.51836(6)
Cu2C Cu 0.35600(6) -0.23263(9) -0.03052(7)
C12C C 0.1786(5) 0.3678(7) -0.0959(6)
C14C C 0.3250(5) -0.3669(7) 0.5577(6)
loop_
_geom_bond_atom_site_label_1
_geom_bond_atom_site_label_2
_geom_bond_site_symmetry_1
_geom_bond_site_symmetry_2
Fe1 N1 1_555 1_555
Cu1 N7 1_555 1_555
Cu2 N9 1_555 1_555
F1 C4 1_555 1_555
F2 C9 1_555 1_555
F3 C18 1_555 1_555
F4 C23 1_555 1_555
F5 C28 1_555 1_555
N1 C1 1_555 1_555
N2 Fe1 1_555 1_555
N3 Fe1 1_555 1_555
N4 Fe1 1_555 1_555
N5 Fe1 1_555 1_555
N6 Fe1 1_555 1_555
N7 C15 1_555 1_555
N8 Cu1 1_555 1_555
N9 C25 1_555 1_555
C1 H1 1_555 1_555
C2 C1 1_555 1_555
H2 C2 1_555 1_555
C3 C2 1_555 1_555
H3 C3 1_555 1_555
C4 C3 1_555 1_555
C5 N1 1_555 1_555
H4 C5 1_555 1_555
C6 N2 1_555 1_555
H5 C6 1_555 1_555
C7 C6 1_555 1_555
H6 C7 1_555 1_555
C8 C7 1_555 1_555
H7 C8 1_555 1_555
C9 C8 1_555 1_555
C10 N2 1_555 1_555
H8 C10 1_555 1_555
C11 Cu1 1_555 1_555
C12 N4 1_555 1_555
C13 Cu2 1_555 1_555
C14 N6 1_555 1_555
C15 H9 1_555 1_555
C16 C15 1_555 1_555
H10 C16 1_555 1_555
C17 C16 1_555 1_555
H11 C17 1_555 1_555
C18 C17 1_555 1_555
C19 N7 1_555 1_555
H12 C19 1_555 1_555
C20 N8 1_555 1_555
H13 C20 1_555 1_555
C21 C20 1_555 1_555
H14 C21 1_555 1_555
C22 C21 1_555 1_555
H15 C22 1_555 1_555
C23 C22 1_555 1_555
C24 N8 1_555 1_555
C25 H16 1_555 1_555
C26 C25 1_555 1_555
H17 C26 1_555 1_555
C27 C26 1_555 1_555
H18 C27 1_555 1_555
C28 C27 1_555 1_555
C29 N9 1_555 1_555
H19 C29 1_555 1_555
H20 C24 1_555 1_555
Cu1C C12 1_555 1_555
Cu2C C14 1_555 1_555
C12C Cu1 1_555 1_555
C14C Cu2 1_555 1_555
N3 C11 1_555 1_555
N5 C13 1_555 1_555
C4 C5 1_555 1_555
C9 C10 1_555 1_555
C18 C19 1_555 1_555
C23 C24 1_555 1_555
C28 C29 1_555 1_555

#END
