
#######################################################################
#
#                 Cambridge Crystallographic Data Centre
#                                CCDC 
#
#######################################################################
#
# If this CIF has been generated from an entry in the Cambridge 
# Structural Database, then it will include bibliographic, chemical, 
# crystal, experimental, refinement or atomic coordinate data resulting 
# from the CCDC's data processing and validation procedures.
#
#######################################################################

data_YUBRAP02
_symmetry_cell_setting           monoclinic
_symmetry_space_group_name_H-M   'P 21/c'
_symmetry_Int_Tables_number      14
_space_group_name_Hall           '-P 2ybc'
loop_
_symmetry_equiv_pos_site_id
_symmetry_equiv_pos_as_xyz
1 x,y,z
2 -x,1/2+y,1/2-z
3 -x,-y,-z
4 x,1/2-y,1/2+z
_cell_length_a                   17.7330(8)
_cell_length_b                   9.0680(4)
_cell_length_c                   24.0490(11)
_cell_angle_alpha                90
_cell_angle_beta                 126.138(2)
_cell_angle_gamma                90
_cell_volume                     3123.1
loop_
_atom_site_label
_atom_site_type_symbol
_atom_site_fract_x
_atom_site_fract_y
_atom_site_fract_z
Fe1 Fe 0.5000 0.5000 0.5000
Fe2 Fe 0.0000 0.5000 0.0000
Cu1 Cu 0.20584(9) 0.38781(12) 0.25971(6)
Cu2 Cu 0.70353(9) 0.25060(13) 0.44130(7)
Cl1 Cl 0.3147(6) 1.0129(6) 0.3340(4)
Cl2 Cl 0.1219(4) 1.0298(4) 0.1586(3)
Cl3 Cl -0.1614(3) 0.2004(7) 0.1456(3)
Cl4 Cl 0.3484(3) 0.2346(9) 0.1855(3)
N1 N 0.3838(6) 0.4364(8) 0.4012(4)
N2 N 0.5909(6) 0.4202(8) 0.4759(4)
N3 N -0.0300(6) 0.7208(8) 0.0220(4)
N4 N 0.0925(6) 0.4527(8) 0.1077(4)
N5 N 0.8855(6) 0.0928(9) 0.4942(4)
N6 N 0.1056(7) 0.2886(9) 0.2708(5)
N7 N 0.6154(7) 0.2152(11) 0.3331(5)
N8 N 0.4996(6) 0.7179(6) 0.4612(3)
C1 C 0.5835(5) 0.7867(11) 0.4845(4)
H1 H 0.6398 0.7385 0.5154
C2 C 0.5833(8) 0.9275(11) 0.4616(6)
H2 H 0.6394 0.9735 0.4772
C3 C 0.4991(10) 0.9995(7) 0.4153(6)
H3 H 0.4990 1.0937 0.4000
C4 C 0.4153(8) 0.9307(9) 0.3920(5)
C5 C 0.4155(5) 0.7899(9) 0.4149(4)
H4 H 0.3594 0.7439 0.3993
C6 C 0.3174(7) 0.4143(10) 0.3472(5)
C7 C 0.6363(7) 0.3604(11) 0.4630(5)
C8 C -0.1144(9) 0.7767(13) -0.0126(6)
H5 H -0.1639 0.7196 -0.0469
C9 C -0.1335(11) 0.9135(17) -0.0010(8)
H6 H -0.1937 0.9520 -0.0280
C10 C -0.058(2) 0.9948(17) 0.0537(10)
H7 H -0.0675 1.0887 0.0643
C11 C 0.0264(13) 0.9344(15) 0.0901(7)
C12 C 0.0404(8) 0.8016(12) 0.0749(5)
H8 H 0.1005 0.7624 0.1013
C13 C 0.1381(7) 0.4288(9) 0.1632(5)
C14 C 0.8175(8) 0.1520(12) 0.4771(5)
C15 C 0.1300(11) 0.2412(14) 0.3320(7)
H9 H 0.1921 0.2482 0.3700
C16 C 0.0655(17) 0.1821(19) 0.3402(10)
H10 H 0.0828 0.1508 0.3830
C17 C -0.0250(19) 0.1713(19) 0.2829(13)
H11 H -0.0699 0.1309 0.2868
C18 C -0.0496(11) 0.2171(15) 0.2222(10)
C19 C 0.0183(10) 0.2744(12) 0.2169(7)
H12 H 0.0016 0.3036 0.1739
C20 C 0.6475(11) 0.1529(17) 0.3033(8)
H13 H 0.7109 0.1306 0.3300
C21 C 0.5967(15) 0.1181(19) 0.2371(11)
H14 H 0.6256 0.0780 0.2185
C22 C 0.5054(15) 0.1397(16) 0.1973(7)
H15 H 0.4691 0.1146 0.1508
C23 C 0.4643(10) 0.2029(17) 0.2281(7)
C24 C 0.5244(10) 0.2350(12) 0.2973(7)
H16 H 0.4999 0.2720 0.3195
Fe2A Fe 1.0000 0.0000 0.5000
Fe2_2 Fe 1.0000 0.5000 1.0000
Fe2A_2 Fe 0.0000 1.0000 0.5000
Cu1B Cu 0.79416(9) 0.61219(12) 0.74029(6)
Cu2B Cu 0.29647(9) 0.74940(13) 0.55870(7)
Cl1B Cl 0.6853(6) -0.0129(6) 0.6660(4)
Cl2B Cl -0.1219(4) -0.0298(4) -0.1586(3)
Cl3B Cl 1.1614(3) 0.7996(7) 0.8544(3)
Cl4B Cl 0.6516(3) 0.7654(9) 0.8145(3)
N1B N 0.6162(6) 0.5636(8) 0.5988(4)
N2B N 0.4091(6) 0.5798(8) 0.5241(4)
N3B N 0.0300(6) 0.2792(8) -0.0220(4)
N4B N 0.9075(6) 0.5473(8) 0.8923(4)
N4B_2 N -0.0925(6) 0.5473(8) -0.1077(4)
N5B N 0.1145(6) 0.9072(9) 0.5058(4)
N5C N -0.1145(6) 0.4072(9) -0.0058(4)
N5A N 0.1145(6) 0.5928(9) 0.0058(4)
N6B N 0.8944(7) 0.7114(9) 0.7292(5)
N7B N 0.3846(7) 0.7848(11) 0.6669(5)
N8B N 0.5004(6) 0.2821(6) 0.5388(3)
C1B C 0.4165(5) 0.2133(11) 0.5155(4)
H1B H 0.3602 0.2615 0.4846
C2B C 0.4167(8) 0.0725(11) 0.5384(6)
H2B H 0.3606 0.0265 0.5228
C3B C 0.5009(10) 0.0005(7) 0.5847(6)
H3B H 0.5010 -0.0937 0.6000
C4B C 0.5847(8) 0.0693(9) 0.6080(5)
C5B C 0.5845(5) 0.2101(9) 0.5851(4)
H4B H 0.6406 0.2561 0.6007
C6B C 0.6826(7) 0.5857(10) 0.6528(5)
C7B C 0.3637(7) 0.6396(11) 0.5370(5)
C8B C 0.1144(9) 0.2233(13) 0.0126(6)
H5B H 0.1639 0.2804 0.0469
C9B C 0.1335(11) 0.0865(17) 0.0010(8)
H6B H 0.1937 0.0480 0.0280
C10B C 0.058(2) 0.0052(17) -0.0537(10)
H7B H 0.0675 -0.0887 -0.0643
C11B C -0.0264(13) 0.0656(15) -0.0901(7)
C12B C -0.0404(8) 0.1984(12) -0.0749(5)
H8B H -0.1005 0.2376 -0.1013
C13B C 0.8619(7) 0.5712(9) 0.8368(5)
C14B C 0.1825(8) 0.8480(12) 0.5229(5)
C15B C 0.8700(11) 0.7588(14) 0.6680(7)
H9B H 0.8079 0.7518 0.6300
C16B C 0.9345(17) 0.8179(19) 0.6598(10)
H10B H 0.9172 0.8492 0.6170
C17B C 1.0250(19) 0.8287(19) 0.7171(13)
H11B H 1.0699 0.8691 0.7132
C18B C 1.0496(11) 0.7829(15) 0.7778(10)
C19B C 0.9817(10) 0.7256(12) 0.7831(7)
H12B H 0.9984 0.6964 0.8261
C20B C 0.3525(11) 0.8471(17) 0.6967(8)
H13B H 0.2891 0.8694 0.6700
C21B C 0.4033(15) 0.8819(19) 0.7629(11)
H14B H 0.3744 0.9220 0.7815
C22B C 0.4946(15) 0.8603(16) 0.8027(7)
H15B H 0.5309 0.8854 0.8492
C23B C 0.5357(10) 0.7971(17) 0.7719(7)
C24B C 0.4756(10) 0.7650(12) 0.7027(7)
H16B H 0.5001 0.7280 0.6805
loop_
_geom_bond_atom_site_label_1
_geom_bond_atom_site_label_2
_geom_bond_site_symmetry_1
_geom_bond_site_symmetry_2
Fe1 N1 1_555 1_555
Fe2 N3 1_555 1_555
Cu1 N6 1_555 1_555
Cu2 N7 1_555 1_555
Cl1 C4 1_555 1_555
Cl2 C11 1_555 1_555
Cl3 C18 1_555 1_555
Cl4 C23 1_555 1_555
N1 C6 1_555 1_555
N2 Fe1 1_555 1_555
N3 C8 1_555 1_555
N4 Fe2 1_555 1_555
N5 C14 1_555 1_555
N6 C15 1_555 1_555
N7 C20 1_555 1_555
N8 Fe1 1_555 1_555
C1 N8 1_555 1_555
H1 C1 1_555 1_555
C2 C1 1_555 1_555
H2 C2 1_555 1_555
C3 C2 1_555 1_555
H3 C3 1_555 1_555
C4 C3 1_555 1_555
C5 N8 1_555 1_555
H4 C5 1_555 1_555
C6 Cu1 1_555 1_555
C7 Cu2 1_555 1_555
C8 H5 1_555 1_555
C9 C8 1_555 1_555
H6 C9 1_555 1_555
C10 C9 1_555 1_555
H7 C10 1_555 1_555
C11 C10 1_555 1_555
C12 N3 1_555 1_555
H8 C12 1_555 1_555
C13 Cu1 1_555 1_555
C14 Cu2 1_555 1_555
C15 H9 1_555 1_555
C16 C15 1_555 1_555
H10 C16 1_555 1_555
C17 C16 1_555 1_555
H11 C17 1_555 1_555
C18 C17 1_555 1_555
C19 N6 1_555 1_555
H12 C19 1_555 1_555
C20 H13 1_555 1_555
C21 C20 1_555 1_555
H14 C21 1_555 1_555
C22 C21 1_555 1_555
H15 C22 1_555 1_555
C23 C22 1_555 1_555
C24 N7 1_555 1_555
H16 C24 1_555 1_555
Fe2A N5 1_555 1_555
Fe2_2 N4B 1_555 1_555
Fe2A_2 N5B 1_555 1_555
Cu1B N6B 1_555 1_555
Cu2B N7B 1_555 1_555
Cl1B C4B 1_555 1_555
Cl2B C11B 1_555 1_555
Cl3B C18B 1_555 1_555
Cl4B C23B 1_555 1_555
N1B Fe1 1_555 1_555
N2B Fe1 1_555 1_555
N3B Fe2 1_555 1_555
N4B C13B 1_555 1_555
N4B_2 Fe2 1_555 1_555
N5B C14B 1_555 1_555
N5C Fe2 1_555 1_555
N5A Fe2 1_555 1_555
N6B C15B 1_555 1_555
N7B C20B 1_555 1_555
N8B Fe1 1_555 1_555
C1B N8B 1_555 1_555
H1B C1B 1_555 1_555
C2B C1B 1_555 1_555
H2B C2B 1_555 1_555
C3B C2B 1_555 1_555
H3B C3B 1_555 1_555
C4B C3B 1_555 1_555
C5B N8B 1_555 1_555
H4B C5B 1_555 1_555
C6B Cu1B 1_555 1_555
C7B Cu2B 1_555 1_555
C8B N3B 1_555 1_555
H5B C8B 1_555 1_555
C9B C8B 1_555 1_555
H6B C9B 1_555 1_555
C10B C9B 1_555 1_555
H7B C10B 1_555 1_555
C11B C10B 1_555 1_555
C12B N3B 1_555 1_555
H8B C12B 1_555 1_555
C13B Cu1B 1_555 1_555
C14B Cu2B 1_555 1_555
C15B H9B 1_555 1_555
C16B C15B 1_555 1_555
H10B C16B 1_555 1_555
C17B C16B 1_555 1_555
H11B C17B 1_555 1_555
C18B C17B 1_555 1_555
C19B N6B 1_555 1_555
H12B C19B 1_555 1_555
C20B H13B 1_555 1_555
C21B C20B 1_555 1_555
H14B C21B 1_555 1_555
C22B C21B 1_555 1_555
H15B C22B 1_555 1_555
C23B C22B 1_555 1_555
C24B N7B 1_555 1_555
H16B C24B 1_555 1_555
N2 C7 1_555 1_555
N4 C13 1_555 1_555
C4 C5 1_555 1_555
C11 C12 1_555 1_555
C18 C19 1_555 1_555
C23 C24 1_555 1_555
N1B C6B 1_555 1_555
N2B C7B 1_555 1_555
C4B C5B 1_555 1_555
C11B C12B 1_555 1_555
C18B C19B 1_555 1_555
C23B C24B 1_555 1_555

#END
