
#######################################################################
#
#                 Cambridge Crystallographic Data Centre
#                                CCDC 
#
#######################################################################
#
# If this CIF has been generated from an entry in the Cambridge 
# Structural Database, then it will include bibliographic, chemical, 
# crystal, experimental, refinement or atomic coordinate data resulting 
# from the CCDC's data processing and validation procedures.
#
#######################################################################

data_YUCCIK
_symmetry_cell_setting           triclinic
_symmetry_space_group_name_H-M   'P -1'
_symmetry_Int_Tables_number      2
_space_group_name_Hall           '-P 1'
loop_
_symmetry_equiv_pos_site_id
_symmetry_equiv_pos_as_xyz
1 x,y,z
2 -x,-y,-z
_cell_length_a                   14.2222(8)
_cell_length_b                   15.0491(14)
_cell_length_c                   16.4125(8)
_cell_angle_alpha                105.9200(10)
_cell_angle_beta                 110.0210(10)
_cell_angle_gamma                101.5370(10)
_cell_volume                     3001.3
loop_
_atom_site_label
_atom_site_type_symbol
_atom_site_fract_x
_atom_site_fract_y
_atom_site_fract_z
Mo1 Mo 0.66303(2) 0.40899(2) 0.17926(2)
Mo2 Mo 0.25854(2) 0.29875(2) -0.04762(2)
Mo3 Mo 0.39373(2) 0.35865(2) 0.12518(2)
Mo4 Mo 0.45662(2) 0.68253(2) 0.18359(2)
Mo5 Mo 0.72856(2) 0.39214(2) 0.04835(2)
Mo6 Mo 0.65656(2) 0.72450(2) 0.22524(2)
Co1 Co 0.5000 0.5000 0.0000
Co2 Co 0.27846(4) 0.95778(4) 0.03952(4)
Co3 Co 0.63122(4) 0.11923(4) 0.34739(4)
Na1 Na 0.64472(16) 0.01511(12) 0.14360(12)
P1 P 0.54863(8) 0.28904(7) 0.28163(7)
P2 P 0.15335(8) 0.09521(7) -0.23928(7)
P3 P 0.47849(7) 0.23259(6) -0.02834(6)
P4 P 0.28240(8) 0.79272(7) 0.12455(7)
O1 O 0.6355(2) 0.46392(18) 0.08027(17)
O2 O 0.3860(2) 0.41478(18) 0.02789(17)
O3 O 0.53644(19) 0.60746(17) 0.13237(17)
O4 O 0.6966(2) 0.6935(2) 0.3190(2)
O5 O 0.7480(2) 0.66431(18) 0.16333(18)
H1 H 0.7200 0.5966 0.1385
O6 O 0.2192(2) 0.1470(2) -0.2795(2)
O7 O 0.5715(2) 0.80601(18) 0.24798(18)
O8 O 0.56585(19) 0.27764(17) -0.05500(17)
O9 O 0.4521(2) 0.6396(2) 0.26661(19)
O10 O 0.3186(2) 0.57617(18) 0.07364(17)
H2 H 0.3395 0.5244 0.0660
O11 O 0.3582(2) 0.76206(19) 0.19472(18)
O12 O 0.3389(2) 0.89104(19) 0.12790(19)
O13 O 0.1931(2) 0.8079(2) 0.1565(2)
H3 H 0.1546 0.7660 0.1495
O14 O 0.7653(2) 0.4999(2) 0.26919(19)
O15 O 0.8478(2) 0.4777(2) 0.1067(2)
O16 O 0.2298(2) 0.71320(19) 0.02646(19)
O17 O 0.7223(2) 0.31551(18) 0.12558(18)
O18 O 0.5450(2) 0.46010(18) 0.20607(18)
H4 H 0.5481 0.5134 0.1942
O19 O 0.50452(19) 0.29830(18) 0.07263(17)
O20 O 0.37302(19) 0.23797(18) -0.09400(17)
O21 O 0.6379(2) 0.3207(2) 0.25260(19)
O22 O 0.5798(3) 0.3571(2) 0.3837(2)
H5 H 0.5879 0.4135 0.3866
O23 O 0.5347(2) 0.1867(2) 0.28052(19)
O24 O 0.4440(2) 0.2919(2) 0.21668(19)
O25 O 0.2907(2) 0.23223(18) 0.03896(18)
O26 O 0.3283(2) 0.4167(2) 0.1773(2)
O27 O 0.1631(2) 0.3424(2) -0.0331(2)
O28 O 0.1606(2) 0.16419(19) -0.14798(19)
O29 O 0.0345(3) 0.0592(3) -0.3115(2)
H6 H 0.0171 0.1064 -0.3184
O30 O 0.4706(2) 0.12964(18) -0.03430(18)
O31 O 0.1797(3) 0.0064(2) -0.2300(3)
C1 C 0.0753(4) 0.7901(3) -0.1074(3)
C2 C -0.0313(4) 0.7342(3) -0.1506(4)
C3 C -0.0927(4) 0.7611(4) -0.1054(4)
C4 C -0.0484(4) 0.8409(4) -0.0223(4)
C5 C 0.0585(3) 0.8927(3) 0.0157(3)
C6 C 0.1120(3) 0.9781(3) 0.1038(3)
C7 C 0.0639(4) 1.0096(4) 0.1620(4)
C8 C 0.1203(5) 1.0909(4) 0.2430(4)
C9 C 0.2240(4) 1.1409(4) 0.2671(4)
C10 C 0.2672(4) 1.1047(3) 0.2069(3)
C11 C -0.0739(5) 0.6498(5) -0.2416(5)
H7 H -0.1453 0.6134 -0.2569
H8 H -0.0309 0.6082 -0.2363
H9 H -0.0729 0.6738 -0.2899
C12 C 0.2907(5) 1.2306(5) 0.3543(4)
H10 H 0.3580 1.2240 0.3857
H11 H 0.2554 1.2380 0.3950
H12 H 0.3012 1.2872 0.3379
C13 C 0.8129(4) 0.3016(4) 0.5000(4)
C14 C 0.8719(4) 0.3733(4) 0.5878(4)
C15 C 0.8305(5) 0.3752(4) 0.6529(4)
C16 C 0.7345(5) 0.3094(4) 0.6299(4)
C17 C 0.6790(4) 0.2401(3) 0.5390(3)
C18 C 0.5751(4) 0.1676(3) 0.5063(3)
C19 C 0.5161(5) 0.1676(4) 0.5582(4)
C20 C 0.4165(5) 0.0999(4) 0.5201(4)
C21 C 0.3748(4) 0.0328(4) 0.4301(3)
C22 C 0.4390(4) 0.0349(3) 0.3829(3)
C23 C 0.9772(5) 0.4440(5) 0.6091(5)
H13 H 0.9660 0.4991 0.5934
H14 H 1.0098 0.4118 0.5731
H15 H 1.0225 0.4660 0.6745
C24 C 0.2657(4) -0.0404(5) 0.3843(4)
H16 H 0.2605 -0.0805 0.4201
H17 H 0.2521 -0.0807 0.3222
H18 H 0.2147 -0.0068 0.3811
N1 N 0.1197(3) 0.8666(2) -0.0273(3)
N2 N 0.2142(3) 1.0259(2) 0.1278(3)
N3 N 0.7199(3) 0.2360(3) 0.4762(3)
N4 N 0.5366(3) 0.1001(3) 0.4193(2)
O32 O 0.3363(2) 0.88330(19) -0.05440(19)
H19 H 0.3996 0.8823 -0.0162
H20 H 0.3097 0.8179 -0.0823
O33 O 0.4363(2) 1.0607(2) 0.0977(2)
H21 H 0.4507 1.0990 0.0681
H22 H 0.4637 1.1031 0.1531
O34 O 0.2387(3) 1.0377(2) -0.0446(2)
H23 H 0.2638 1.0984 -0.0204
H24 H 0.2048 1.0202 -0.1081
O35 O 0.7211(2) 0.1678(2) 0.2736(2)
H25 H 0.7028 0.2190 0.2598
H26 H 0.7957 0.1822 0.2966
O36 O 0.7429(3) 0.0474(3) 0.3902(2)
H27 H 0.7438 -0.0026 0.3486
H28 H 0.8049 0.0790 0.4383
O37 O 0.5512(2) -0.01999(19) 0.23770(19)
H29 H 0.4845 -0.0420 0.1953
H30 H 0.5569 -0.0736 0.2408
H31 H 0.116(4) 0.774(3) -0.139(3)
H32 H -0.164(5) 0.729(4) -0.132(4)
H33 H -0.090(5) 0.862(4) 0.009(4)
H34 H 0.002(5) 0.976(4) 0.147(4)
H35 H 0.075(5) 1.107(4) 0.276(4)
H36 H 0.339(4) 1.130(3) 0.220(3)
H37 H 0.842(4) 0.294(4) 0.454(4)
H38 H 0.873(7) 0.420(6) 0.725(6)
H39 H 0.707(5) 0.319(4) 0.682(4)
H40 H 0.548(5) 0.210(5) 0.616(5)
H41 H 0.388(6) 0.103(6) 0.565(4)
H42 H 0.418(4) -0.021(4) 0.318(4)
Mo1A Mo 0.33697(2) -0.40899(2) -0.17926(2)
Mo2A Mo 0.74146(2) -0.29875(2) 0.04762(2)
Mo3A Mo 0.60627(2) -0.35865(2) -0.12518(2)
Mo5A Mo 0.27144(2) -0.39214(2) -0.04835(2)
Co3A Co 0.36878(4) -0.11923(4) -0.34739(4)
Na1A Na 0.35528(16) -0.01511(12) -0.14360(12)
P1A P 0.45137(8) -0.28904(7) -0.28163(7)
P2A P 0.84665(8) -0.09521(7) 0.23928(7)
P3A P 0.52151(7) -0.23259(6) 0.02834(6)
O1A O 0.3645(2) -0.46392(18) -0.08027(17)
O2A O 0.6140(2) -0.41478(18) -0.02789(17)
O6A O 0.7808(2) -0.1470(2) 0.2795(2)
O8A O 0.43415(19) -0.27764(17) 0.05500(17)
O14A O 0.2347(2) -0.4999(2) -0.26919(19)
O15A O 0.1522(2) -0.4777(2) -0.1067(2)
O17A O 0.2777(2) -0.31551(18) -0.12558(18)
O18A O 0.4550(2) -0.46010(18) -0.20607(18)
H4A H 0.4519 -0.5134 -0.1942
O19A O 0.49548(19) -0.29830(18) -0.07263(17)
O20A O 0.62698(19) -0.23797(18) 0.09400(17)
O21A O 0.3621(2) -0.3207(2) -0.25260(19)
O22A O 0.4202(3) -0.3571(2) -0.3837(2)
H5A H 0.4121 -0.4135 -0.3866
O23A O 0.4653(2) -0.1867(2) -0.28052(19)
O24A O 0.5560(2) -0.2919(2) -0.21668(19)
O25A O 0.7093(2) -0.23223(18) -0.03896(18)
O26A O 0.6717(2) -0.4167(2) -0.1773(2)
O27A O 0.8369(2) -0.3424(2) 0.0331(2)
O28A O 0.8394(2) -0.16419(19) 0.14798(19)
O29A O 0.9655(3) -0.0592(3) 0.3115(2)
H6A H 0.9829 -0.1064 0.3184
O30A O 0.5294(2) -0.12964(18) 0.03430(18)
O31A O 0.8203(3) -0.0064(2) 0.2300(3)
C13A C 0.1871(4) -0.3016(4) -0.5000(4)
C14A C 0.1281(4) -0.3733(4) -0.5878(4)
C15A C 0.1695(5) -0.3752(4) -0.6529(4)
C16A C 0.2655(5) -0.3094(4) -0.6299(4)
C17A C 0.3210(4) -0.2401(3) -0.5390(3)
C18A C 0.4249(4) -0.1676(3) -0.5063(3)
C19A C 0.4839(5) -0.1676(4) -0.5582(4)
C20A C 0.5835(5) -0.0999(4) -0.5201(4)
C21A C 0.6252(4) -0.0328(4) -0.4301(3)
C22A C 0.5610(4) -0.0349(3) -0.3829(3)
C23A C 0.0228(5) -0.4440(5) -0.6091(5)
H13A H 0.0340 -0.4991 -0.5934
H14A H -0.0098 -0.4118 -0.5731
H15A H -0.0225 -0.4660 -0.6745
C24A C 0.7343(4) 0.0404(5) -0.3843(4)
H16A H 0.7395 0.0805 -0.4201
H17A H 0.7479 0.0807 -0.3222
H18A H 0.7853 0.0068 -0.3811
N3A N 0.2801(3) -0.2360(3) -0.4762(3)
N4A N 0.4634(3) -0.1001(3) -0.4193(2)
O35A O 0.2789(2) -0.1678(2) -0.2736(2)
H25A H 0.2972 -0.2190 -0.2598
H26A H 0.2043 -0.1822 -0.2966
O36A O 0.2571(3) -0.0474(3) -0.3902(2)
H27A H 0.2562 0.0026 -0.3486
H28A H 0.1951 -0.0790 -0.4383
O37A O 0.4488(2) 0.01999(19) -0.23770(19)
H29A H 0.5155 0.0420 -0.1953
H30A H 0.4431 0.0736 -0.2408
H37A H 0.158(4) -0.294(4) -0.454(4)
H38A H 0.127(7) -0.420(6) -0.725(6)
H39A H 0.293(5) -0.319(4) -0.682(4)
H40A H 0.452(5) -0.210(5) -0.616(5)
H41A H 0.612(6) -0.103(6) -0.565(4)
H42A H 0.582(4) 0.021(4) -0.318(4)
Mo4A Mo 0.54338(2) 0.31747(2) -0.18359(2)
Mo6A Mo 0.34344(2) 0.27550(2) -0.22524(2)
Co2A Co 0.72154(4) 0.04222(4) -0.03952(4)
P4A P 0.71760(8) 0.20728(7) -0.12455(7)
O3A O 0.46356(19) 0.39254(17) -0.13237(17)
O4A O 0.3034(2) 0.3065(2) -0.3190(2)
O5A O 0.2520(2) 0.33569(18) -0.16333(18)
H1A H 0.2800 0.4034 -0.1385
O7A O 0.4285(2) 0.19399(18) -0.24798(18)
O9A O 0.5479(2) 0.3604(2) -0.26661(19)
O10A O 0.6814(2) 0.42383(18) -0.07364(17)
H2A H 0.6605 0.4756 -0.0660
O11A O 0.6418(2) 0.23794(19) -0.19472(18)
O12A O 0.6611(2) 0.10896(19) -0.12790(19)
O13A O 0.8069(2) 0.1921(2) -0.1565(2)
H3A H 0.8454 0.2340 -0.1495
O16A O 0.7702(2) 0.28680(19) -0.02646(19)
C1A C 0.9247(4) 0.2099(3) 0.1074(3)
C2A C 1.0313(4) 0.2658(3) 0.1506(4)
C3A C 1.0927(4) 0.2389(4) 0.1054(4)
C4A C 1.0484(4) 0.1591(4) 0.0223(4)
C5A C 0.9415(3) 0.1073(3) -0.0157(3)
C6A C 0.8880(3) 0.0219(3) -0.1038(3)
C7A C 0.9361(4) -0.0096(4) -0.1620(4)
C8A C 0.8797(5) -0.0909(4) -0.2430(4)
C9A C 0.7760(4) -0.1409(4) -0.2671(4)
C10A C 0.7328(4) -0.1047(3) -0.2069(3)
C11A C 1.0739(5) 0.3502(5) 0.2416(5)
H7A H 1.1453 0.3866 0.2569
H8A H 1.0309 0.3918 0.2363
H9A H 1.0729 0.3262 0.2899
C12A C 0.7093(5) -0.2306(5) -0.3543(4)
H10A H 0.6420 -0.2240 -0.3857
H11A H 0.7446 -0.2380 -0.3950
H12A H 0.6988 -0.2872 -0.3379
N1A N 0.8803(3) 0.1334(2) 0.0273(3)
N2A N 0.7858(3) -0.0259(2) -0.1278(3)
O32A O 0.6637(2) 0.11670(19) 0.05440(19)
H19A H 0.6004 0.1177 0.0162
H20A H 0.6903 0.1821 0.0823
O33A O 0.5637(2) -0.0607(2) -0.0977(2)
H21A H 0.5493 -0.0990 -0.0681
H22A H 0.5363 -0.1031 -0.1531
O34A O 0.7613(3) -0.0377(2) 0.0446(2)
H23A H 0.7362 -0.0984 0.0204
H24A H 0.7952 -0.0202 0.1081
H31A H 0.884(4) 0.226(3) 0.139(3)
H32A H 1.164(5) 0.271(4) 0.132(4)
H33A H 1.090(5) 0.138(4) -0.009(4)
H34A H 0.998(5) 0.024(4) -0.147(4)
H35A H 0.925(5) -0.107(4) -0.276(4)
H36A H 0.661(4) -0.130(3) -0.220(3)
Mo2A_2 Mo 0.74146(2) 0.70125(2) 0.04762(2)
Mo4_2 Mo 0.45662(2) -0.31747(2) 0.18359(2)
Mo5A_2 Mo 0.27144(2) 0.60786(2) -0.04835(2)
Mo6_2 Mo 0.65656(2) -0.27550(2) 0.22524(2)
Co1_2 Co 0.5000 -0.5000 0.0000
Na1A_2 Na 0.35528(16) 0.98489(12) -0.14360(12)
O1A_2 O 0.3645(2) 0.53608(18) -0.08027(17)
O2A_2 O 0.6140(2) 0.58522(18) -0.02789(17)
O5_2 O 0.7480(2) -0.33569(18) 0.16333(18)
O6A_2 O 0.7808(2) 0.8530(2) 0.2795(2)
O8A_2 O 0.43415(19) 0.72236(17) 0.05500(17)
O10_2 O 0.3186(2) -0.42383(18) 0.07364(17)
O16_2 O 0.2298(2) -0.28680(19) 0.02646(19)
O20A_2 O 0.62698(19) 0.76203(18) 0.09400(17)
O32_2 O 0.3363(2) -0.11670(19) -0.05440(19)
O34_2 O 0.2387(3) 0.0377(2) -0.0446(2)
O38 O 0.1404(5) 0.5141(4) 0.1182(4)
H43 H 0.1999 0.5192 0.1145
H44 H 0.0777 0.4742 0.0939
O39 O 0.9350(5) 0.1379(5) 0.5315(5)
H45 H 0.9643 0.1801 0.5156
H46 H 0.9498 0.1197 0.5769
O40 O 0.8820(7) 0.8986(6) 0.4903(5)
H47 H 0.8247 0.9074 0.4842
H48 H 0.9175 0.9527 0.4942
O41 O 0.8836(10) 0.7174(10) 0.5178(8)
H49 H 0.8260 0.6767 0.4814
H50 H 0.9104 0.7547 0.4954
O42 O 0.6177(14) 0.5464(6) 0.4142(6)
H51 H 0.6302 0.5452 0.4600
H52 H 0.5557 0.5425 0.4001
O43 O 0.9263(3) 0.1921(3) 0.3240(4)
H53 H 0.9692 0.2225 0.3812
H54 H 0.9021 0.1299 0.2956
O44 O 0.0451(3) 0.6548(3) 0.1363(3)
H55 H -0.0097 0.6683 0.1318
H56 H 0.0457 0.6021 0.0989
O45 O 0.0210(4) 0.2583(4) 0.7178(3)
H57 H 0.0299 0.3180 0.7143
H58 H -0.0061 0.2657 0.7550
O46 O 0.457(2) 0.5506(16) 0.4216(12)
H59 H 0.4936 0.6091 0.4553
H60 H 0.3901 0.5186 0.3961
loop_
_geom_bond_atom_site_label_1
_geom_bond_atom_site_label_2
_geom_bond_site_symmetry_1
_geom_bond_site_symmetry_2
Mo1 O1 1_555 1_555
Mo2 O2 1_555 1_555
Mo3 O2 1_555 1_555
Mo4 O3 1_555 1_555
Mo5 O1 1_555 1_555
Mo6 O3 1_555 1_555
Co1 O1 1_555 1_555
Co2 O12 1_555 1_555
Co3 O23 1_555 1_555
Na1 O35 1_555 1_555
P1 O21 1_555 1_555
P2 O6 1_555 1_555
P3 O8 1_555 1_555
P4 O11 1_555 1_555
O2 Co1 1_555 1_555
O3 Co1 1_555 1_555
O4 Mo6 1_555 1_555
O5 Mo6 1_555 1_555
H1 O5 1_555 1_555
O6 Mo6A 1_555 1_555
O7 Mo4 1_555 1_555
O8 Mo5 1_555 1_555
O9 Mo4 1_555 1_555
O10 Mo4 1_555 1_555
H2 O10 1_555 1_555
O11 Mo4 1_555 1_555
O12 P4 1_555 1_555
O13 P4 1_555 1_555
H3 O13 1_555 1_555
O14 Mo1 1_555 1_555
O15 Mo5 1_555 1_555
O16 P4 1_555 1_555
O17 Mo1 1_555 1_555
O18 Mo1 1_555 1_555
H4 O18 1_555 1_555
O19 Mo1 1_555 1_555
O20 Mo2 1_555 1_555
O21 Mo1 1_555 1_555
O22 P1 1_555 1_555
H5 O22 1_555 1_555
O23 P1 1_555 1_555
O24 Mo3 1_555 1_555
O25 Mo2 1_555 1_555
O26 Mo3 1_555 1_555
O27 Mo2 1_555 1_555
O28 Mo2 1_555 1_555
O29 P2 1_555 1_555
H6 O29 1_555 1_555
O30 P3 1_555 1_555
O31 P2 1_555 1_555
C1 C2 1_555 1_555
C2 C3 1_555 1_555
C3 C4 1_555 1_555
C4 C5 1_555 1_555
C5 C6 1_555 1_555
C6 C7 1_555 1_555
C7 C8 1_555 1_555
C8 C9 1_555 1_555
C9 C10 1_555 1_555
C10 N2 1_555 1_555
C11 C2 1_555 1_555
H7 C11 1_555 1_555
H8 C11 1_555 1_555
H9 C11 1_555 1_555
C12 C9 1_555 1_555
H10 C12 1_555 1_555
H11 C12 1_555 1_555
H12 C12 1_555 1_555
C13 C14 1_555 1_555
C14 C15 1_555 1_555
C15 C16 1_555 1_555
C16 C17 1_555 1_555
C17 C18 1_555 1_555
C18 C19 1_555 1_555
C19 C20 1_555 1_555
C20 C21 1_555 1_555
C21 C22 1_555 1_555
C22 N4 1_555 1_555
C23 C14 1_555 1_555
H13 C23 1_555 1_555
H14 C23 1_555 1_555
H15 C23 1_555 1_555
C24 C21 1_555 1_555
H16 C24 1_555 1_555
H17 C24 1_555 1_555
H18 C24 1_555 1_555
N1 Co2 1_555 1_555
N2 Co2 1_555 1_555
N3 Co3 1_555 1_555
N4 Co3 1_555 1_555
O32 Co2 1_555 1_555
H19 O32 1_555 1_555
H20 O32 1_555 1_555
O33 Co2 1_555 1_555
H21 O33 1_555 1_555
H22 O33 1_555 1_555
O34 Co2 1_555 1_555
H23 O34 1_555 1_555
H24 O34 1_555 1_555
O35 Co3 1_555 1_555
H25 O35 1_555 1_555
H26 O35 1_555 1_555
O36 Co3 1_555 1_555
H27 O36 1_555 1_555
H28 O36 1_555 1_555
O37 Co3 1_555 1_555
H29 O37 1_555 1_555
H30 O37 1_555 1_555
H31 C1 1_555 1_555
H32 C3 1_555 1_555
H33 C4 1_555 1_555
H34 C7 1_555 1_555
H35 C8 1_555 1_555
H36 C10 1_555 1_555
H37 C13 1_555 1_555
H38 C15 1_555 1_555
H39 C16 1_555 1_555
H40 C19 1_555 1_555
H41 C20 1_555 1_555
H42 C22 1_555 1_555
O38 H43 1_555 1_555
H44 O38 1_555 1_555
O39 H45 1_555 1_555
H46 O39 1_555 1_555
O40 H47 1_555 1_555
H48 O40 1_555 1_555
O41 H49 1_555 1_555
H50 O41 1_555 1_555
O42 H51 1_555 1_555
H52 O42 1_555 1_555
O43 H53 1_555 1_555
H54 O43 1_555 1_555
O44 H55 1_555 1_555
H56 O44 1_555 1_555
O45 H57 1_555 1_555
H58 O45 1_555 1_555
O46 H59 1_555 1_555
H60 O46 1_555 1_555
Mo1A O1A 1_555 1_555
Mo2A O2A 1_555 1_555
Mo3A O2A 1_555 1_555
Mo5A O1A 1_555 1_555
Co3A O23A 1_555 1_555
Na1A O30 1_555 1_555
P1A O21A 1_555 1_555
P2A O6A 1_555 1_555
P3A O8A 1_555 1_555
O1A Co1_2 1_555 1_555
O2A Co1_2 1_555 1_555
O6A Mo6_2 1_555 1_555
O8A Mo5A 1_555 1_555
O14A Mo1A 1_555 1_555
O15A Mo5A 1_555 1_555
O17A Mo1A 1_555 1_555
O18A Mo1A 1_555 1_555
H4A O18A 1_555 1_555
O19A Mo1A 1_555 1_555
O20A Mo2A 1_555 1_555
O21A Mo1A 1_555 1_555
O22A P1A 1_555 1_555
H5A O22A 1_555 1_555
O23A P1A 1_555 1_555
O24A Mo3A 1_555 1_555
O25A Mo2A 1_555 1_555
O26A Mo3A 1_555 1_555
O27A Mo2A 1_555 1_555
O28A Mo2A 1_555 1_555
O29A P2A 1_555 1_555
H6A O29A 1_555 1_555
O30A Na1 1_555 1_555
O31A Na1 1_555 1_555
C13A C14A 1_555 1_555
C14A C15A 1_555 1_555
C15A C16A 1_555 1_555
C16A C17A 1_555 1_555
C17A C18A 1_555 1_555
C18A C19A 1_555 1_555
C19A C20A 1_555 1_555
C20A C21A 1_555 1_555
C21A C22A 1_555 1_555
C22A N4A 1_555 1_555
C23A C14A 1_555 1_555
H13A C23A 1_555 1_555
H14A C23A 1_555 1_555
H15A C23A 1_555 1_555
C24A C21A 1_555 1_555
H16A C24A 1_555 1_555
H17A C24A 1_555 1_555
H18A C24A 1_555 1_555
N3A Co3A 1_555 1_555
N4A Co3A 1_555 1_555
O35A Co3A 1_555 1_555
H25A O35A 1_555 1_555
H26A O35A 1_555 1_555
O36A Co3A 1_555 1_555
H27A O36A 1_555 1_555
H28A O36A 1_555 1_555
O37A Co3A 1_555 1_555
H29A O37A 1_555 1_555
H30A O37A 1_555 1_555
H37A C13A 1_555 1_555
H38A C15A 1_555 1_555
H39A C16A 1_555 1_555
H40A C19A 1_555 1_555
H41A C20A 1_555 1_555
H42A C22A 1_555 1_555
Mo4A O8 1_555 1_555
Mo6A O20 1_555 1_555
Co2A O12A 1_555 1_555
P4A O11A 1_555 1_555
O3A Co1 1_555 1_555
O4A Mo6A 1_555 1_555
O5A Mo2 1_555 1_555
H1A O5A 1_555 1_555
O7A Mo4A 1_555 1_555
O9A Mo4A 1_555 1_555
O10A Mo5 1_555 1_555
H2A O10A 1_555 1_555
O11A Mo4A 1_555 1_555
O12A P4A 1_555 1_555
O13A P4A 1_555 1_555
H3A O13A 1_555 1_555
O16A Mo5 1_555 1_555
C1A C2A 1_555 1_555
C2A C3A 1_555 1_555
C3A C4A 1_555 1_555
C4A C5A 1_555 1_555
C5A C6A 1_555 1_555
C6A C7A 1_555 1_555
C7A C8A 1_555 1_555
C8A C9A 1_555 1_555
C9A C10A 1_555 1_555
C10A N2A 1_555 1_555
C11A C2A 1_555 1_555
H7A C11A 1_555 1_555
H8A C11A 1_555 1_555
H9A C11A 1_555 1_555
C12A C9A 1_555 1_555
H10A C12A 1_555 1_555
H11A C12A 1_555 1_555
H12A C12A 1_555 1_555
N1A Co2A 1_555 1_555
N2A Co2A 1_555 1_555
O32A Na1 1_555 1_555
H19A O32A 1_555 1_555
H20A O32A 1_555 1_555
O33A Co2A 1_555 1_555
H21A O33A 1_555 1_555
H22A O33A 1_555 1_555
O34A Na1 1_555 1_555
H23A O34A 1_555 1_555
H24A O34A 1_555 1_555
H31A C1A 1_555 1_555
H32A C3A 1_555 1_555
H33A C4A 1_555 1_555
H34A C7A 1_555 1_555
H35A C8A 1_555 1_555
H36A C10A 1_555 1_555
Mo2A_2 O5 1_555 1_555
Mo4_2 O8A 1_555 1_555
Mo5A_2 O10 1_555 1_555
Mo6_2 O20A 1_555 1_555
Na1A_2 O32 1_555 1_555
O1A_2 Co1 1_555 1_555
O2A_2 Co1 1_555 1_555
O5_2 Mo2A 1_555 1_555
O6A_2 Mo6 1_555 1_555
O8A_2 Mo4 1_555 1_555
O10_2 Mo5A 1_555 1_555
O16_2 Mo5A 1_555 1_555
O20A_2 Mo6 1_555 1_555
O32_2 Na1A 1_555 1_555
O34_2 Na1A 1_555 1_555
Mo3 O18 1_555 1_555
Mo3 O19 1_555 1_555
Mo3 O25 1_555 1_555
Mo5 O17 1_555 1_555
Mo6 O7 1_555 1_555
Na1 O37 1_555 1_555
P1 O24 1_555 1_555
P2 O28 1_555 1_555
P3 O19 1_555 1_555
P3 O20 1_555 1_555
O16 Mo5A_2 1_555 1_555
O31 Na1A 1_555 1_555
C1 N1 1_555 1_555
C5 N1 1_555 1_555
C6 N2 1_555 1_555
C13 N3 1_555 1_555
C17 N3 1_555 1_555
C18 N4 1_555 1_555
O34 Na1A_2 1_555 1_555
Mo3A O18A 1_555 1_555
Mo3A O19A 1_555 1_555
Mo3A O25A 1_555 1_555
Mo5A O17A 1_555 1_555
Na1A O35A 1_555 1_555
Na1A O37A 1_555 1_555
P1A O24A 1_555 1_555
P2A O28A 1_555 1_555
P2A O31A 1_555 1_555
P3A O19A 1_555 1_555
P3A O20A 1_555 1_555
P3A O30A 1_555 1_555
C13A N3A 1_555 1_555
C17A N3A 1_555 1_555
C18A N4A 1_555 1_555
Mo4A O3A 1_555 1_555
Mo4A O10A 1_555 1_555
Mo6A O3A 1_555 1_555
Mo6A O5A 1_555 1_555
Mo6A O7A 1_555 1_555
Co2A O32A 1_555 1_555
Co2A O34A 1_555 1_555
P4A O16A 1_555 1_555
C1A N1A 1_555 1_555
C5A N1A 1_555 1_555
C6A N2A 1_555 1_555
Mo2A_2 O2A_2 1_555 1_555
Mo2A_2 O20A_2 1_555 1_555
Mo4_2 O10_2 1_555 1_555
Mo5A_2 O1A_2 1_555 1_555
Mo5A_2 O8A_2 1_555 1_555
Mo6_2 O5_2 1_555 1_555

#END
