
#######################################################################
#
#                 Cambridge Crystallographic Data Centre
#                                CCDC 
#
#######################################################################
#
# If this CIF has been generated from an entry in the Cambridge 
# Structural Database, then it will include bibliographic, chemical, 
# crystal, experimental, refinement or atomic coordinate data resulting 
# from the CCDC's data processing and validation procedures.
#
#######################################################################

data_YUCDUW
_symmetry_cell_setting           orthorhombic
_symmetry_space_group_name_H-M   'P b c a'
_symmetry_Int_Tables_number      61
_space_group_name_Hall           '-P 2ac 2ab'
loop_
_symmetry_equiv_pos_site_id
_symmetry_equiv_pos_as_xyz
1 x,y,z
2 1/2-x,-y,1/2+z
3 -x,1/2+y,1/2-z
4 1/2+x,1/2-y,-z
5 -x,-y,-z
6 1/2+x,y,1/2-z
7 x,1/2-y,1/2+z
8 1/2-x,1/2+y,z
_cell_length_a                   10.717(2)
_cell_length_b                   9.4278(17)
_cell_length_c                   28.146(6)
_cell_angle_alpha                90
_cell_angle_beta                 90
_cell_angle_gamma                90
_cell_volume                     2843.81
loop_
_atom_site_label
_atom_site_type_symbol
_atom_site_fract_x
_atom_site_fract_y
_atom_site_fract_z
Er1 Er 0.93575(2) 0.80131(3) -0.046763(10)
P1 P 1.12110(14) 0.66842(16) -0.43815(6)
N1 N 0.9218(4) 0.7878(5) -0.39295(18)
C1 C 0.9388(9) 0.6384(9) -0.2819(3)
H1 H 0.9914 0.5675 -0.2932
C2 C 0.9392(9) 0.6732(9) -0.2336(3)
H2 H 0.9902 0.6240 -0.2126
C3 C 0.8642(7) 0.7798(8) -0.2175(3)
C4 C 0.7847(10) 0.8502(12) -0.2483(3)
H3 H 0.7330 0.9221 -0.2372
C5 C 0.7826(10) 0.8130(12) -0.2954(3)
H4 H 0.7279 0.8586 -0.3160
C6 C 0.8610(7) 0.7085(8) -0.3127(2)
C7 C 0.8706(7) 0.8245(8) -0.1662(3)
C8 C 0.8581(6) 0.6761(7) -0.3655(2)
H5 H 0.7721 0.6686 -0.3760
H6 H 0.8986 0.5857 -0.3713
C9 C 1.0594(5) 0.7886(7) -0.3933(2)
H7 H 1.0889 0.8840 -0.3997
H8 H 1.0901 0.7605 -0.3623
C10 C 0.8590(6) 0.8795(7) -0.4200(2)
C11 C 0.7295(6) 0.8941(7) -0.4333(2)
C12 C 0.7617(6) 1.0170(7) -0.4635(2)
C13 C 0.8926(6) 1.0040(6) -0.4471(2)
O1 O 0.8076(6) 0.9445(7) -0.1579(2)
H9 H 0.8316 0.9796 -0.1328
O2 O 0.9293(5) 0.7608(6) -0.13593(17)
O3 O 0.6329(4) 0.8337(5) -0.42118(17)
O4 O 0.7015(5) 1.0981(5) -0.48933(19)
O5 O 0.9932(4) 1.0715(4) -0.45021(17)
O6 O 1.2582(4) 0.6979(5) -0.43954(18)
O7 O 1.0968(4) 0.5167(5) -0.42122(17)
O8 O 1.0495(4) 0.6977(6) -0.48284(16)
Er1E Er 0.43575(2) 0.80131(3) -0.453237(10)
Er1A Er 0.56425(2) 1.19869(3) -0.546763(10)
Er1B Er 1.06425(2) 1.30131(3) -0.453237(10)
Er1E_2 Er 1.43575(2) 0.80131(3) -0.453237(10)
Er1B_2 Er 1.06425(2) 0.30131(3) -0.453237(10)
Er1F Er 0.93575(2) 0.69869(3) -0.546763(10)
O3E O 1.1329(4) 0.8337(5) -0.07882(17)
O4A O 0.7985(5) 0.9019(5) 0.01067(19)
O5B O 1.0068(4) 0.5715(4) -0.04979(17)
O6E O 0.7582(4) 0.6979(5) -0.06046(18)
O7B O 0.9032(4) 1.0167(5) -0.07878(17)
O8F O 1.0495(4) 0.8023(6) 0.01716(16)
loop_
_geom_bond_atom_site_label_1
_geom_bond_atom_site_label_2
_geom_bond_site_symmetry_1
_geom_bond_site_symmetry_2
Er1 O2 1_555 1_555
P1 C9 1_555 1_555
N1 C8 1_555 1_555
C1 H1 1_555 1_555
C2 C1 1_555 1_555
H2 C2 1_555 1_555
C3 C2 1_555 1_555
C4 C3 1_555 1_555
H3 C4 1_555 1_555
C5 C4 1_555 1_555
H4 C5 1_555 1_555
C6 C1 1_555 1_555
C7 C3 1_555 1_555
C8 C6 1_555 1_555
H5 C8 1_555 1_555
H6 C8 1_555 1_555
C9 N1 1_555 1_555
H7 C9 1_555 1_555
H8 C9 1_555 1_555
C10 N1 1_555 1_555
C11 C10 1_555 1_555
C12 C11 1_555 1_555
C13 C10 1_555 1_555
O1 C7 1_555 1_555
H9 O1 1_555 1_555
O2 C7 1_555 1_555
O3 C11 1_555 1_555
O4 C12 1_555 1_555
O5 C13 1_555 1_555
O6 P1 1_555 1_555
O7 P1 1_555 1_555
O8 P1 1_555 1_555
Er1E O3 1_555 1_555
Er1A O4 1_555 1_555
Er1B O5 1_555 1_555
Er1E_2 O6 1_555 1_555
Er1B_2 O7 1_555 1_555
Er1F O8 1_555 1_555
O3E Er1 1_555 1_555
O4A Er1 1_555 1_555
O5B Er1 1_555 1_555
O6E Er1 1_555 1_555
O7B Er1 1_555 1_555
O8F Er1 1_555 1_555
C5 C6 1_555 1_555
C12 C13 1_555 1_555

#END
