
#######################################################################
#
#                 Cambridge Crystallographic Data Centre
#                                CCDC 
#
#######################################################################
#
# If this CIF has been generated from an entry in the Cambridge 
# Structural Database, then it will include bibliographic, chemical, 
# crystal, experimental, refinement or atomic coordinate data resulting 
# from the CCDC's data processing and validation procedures.
#
#######################################################################

data_YUCDAC
_symmetry_cell_setting           orthorhombic
_symmetry_space_group_name_H-M   'P b c a'
_symmetry_Int_Tables_number      61
_space_group_name_Hall           '-P 2ac 2ab'
loop_
_symmetry_equiv_pos_site_id
_symmetry_equiv_pos_as_xyz
1 x,y,z
2 1/2-x,-y,1/2+z
3 -x,1/2+y,1/2-z
4 1/2+x,1/2-y,-z
5 -x,-y,-z
6 1/2+x,y,1/2-z
7 x,1/2-y,1/2+z
8 1/2-x,1/2+y,z
_cell_length_a                   10.9670(18)
_cell_length_b                   9.5949(17)
_cell_length_c                   28.377(5)
_cell_angle_alpha                90
_cell_angle_beta                 90
_cell_angle_gamma                90
_cell_volume                     2986.03
loop_
_atom_site_label
_atom_site_type_symbol
_atom_site_fract_x
_atom_site_fract_y
_atom_site_fract_z
Nd1 Nd 0.936103(17) 0.80412(2) -0.046793(7)
P1 P 1.12090(9) 0.66981(11) -0.43522(4)
N1 N 0.9220(3) 0.7899(4) -0.39347(12)
C1 C 0.9356(5) 0.6430(5) -0.28332(17)
H1 H 0.9866 0.5726 -0.2943
C2 C 0.9367(5) 0.6778(5) -0.23578(17)
H2 H 0.9868 0.6295 -0.2150
C3 C 0.8637(4) 0.7834(5) -0.21966(16)
C4 C 0.7864(6) 0.8516(7) -0.25035(19)
H3 H 0.7365 0.9230 -0.2394
C5 C 0.7833(6) 0.8139(7) -0.29729(18)
H4 H 0.7290 0.8579 -0.3176
C6 C 0.8600(4) 0.7113(5) -0.31447(15)
C7 C 0.8702(4) 0.8280(5) -0.16924(16)
C8 C 0.8594(4) 0.6783(4) -0.36655(14)
H5 H 0.7759 0.6695 -0.3775
H6 H 0.9003 0.5901 -0.3719
C9 C 1.0564(3) 0.7925(4) -0.39297(14)
H7 H 1.0844 0.8859 -0.4004
H8 H 1.0852 0.7695 -0.3616
C10 C 0.8605(3) 0.8788(4) -0.42037(14)
C11 C 0.7338(4) 0.8935(4) -0.43308(14)
C12 C 0.7641(4) 1.0138(5) -0.46287(15)
C13 C 0.8931(4) 1.0015(4) -0.44703(14)
O1 O 0.8081(4) 0.9430(4) -0.16078(12)
H9 H 0.8317 0.9778 -0.1360
O2 O 0.9310(3) 0.7666(4) -0.13946(11)
O3 O 0.6386(3) 0.8346(3) -0.42044(11)
O4 O 0.7054(3) 1.0938(4) -0.48852(12)
O5 O 0.9898(3) 1.0692(3) -0.45085(12)
O6 O 1.2547(3) 0.7014(4) -0.43623(11)
O7 O 1.0984(3) 0.5223(3) -0.41636(11)
O8 O 1.0530(3) 0.6909(4) -0.48056(11)
Nd1E Nd 0.436103(17) 0.80412(2) -0.453207(7)
Nd1A Nd 0.563897(17) 1.19588(2) -0.546793(7)
Nd1B Nd 1.063897(17) 1.30412(2) -0.453207(7)
Nd1E_2 Nd 1.436103(17) 0.80412(2) -0.453207(7)
Nd1B_2 Nd 1.063897(17) 0.30412(2) -0.453207(7)
Nd1F Nd 0.936103(17) 0.69588(2) -0.546793(7)
O3E O 1.1386(3) 0.8346(3) -0.07956(11)
O4A O 0.7946(3) 0.9062(4) 0.01148(12)
O5B O 1.0102(3) 0.5692(3) -0.04915(12)
O6E O 0.7547(3) 0.7014(4) -0.06377(11)
O7B O 0.9016(3) 1.0223(3) -0.08364(11)
O8F O 1.0530(3) 0.8091(4) 0.01944(11)
loop_
_geom_bond_atom_site_label_1
_geom_bond_atom_site_label_2
_geom_bond_site_symmetry_1
_geom_bond_site_symmetry_2
Nd1 O2 1_555 1_555
P1 C9 1_555 1_555
N1 C8 1_555 1_555
C1 H1 1_555 1_555
C2 C1 1_555 1_555
H2 C2 1_555 1_555
C3 C2 1_555 1_555
C4 C3 1_555 1_555
H3 C4 1_555 1_555
C5 C4 1_555 1_555
H4 C5 1_555 1_555
C6 C1 1_555 1_555
C7 C3 1_555 1_555
C8 C6 1_555 1_555
H5 C8 1_555 1_555
H6 C8 1_555 1_555
C9 N1 1_555 1_555
H7 C9 1_555 1_555
H8 C9 1_555 1_555
C10 N1 1_555 1_555
C11 C10 1_555 1_555
C12 C11 1_555 1_555
C13 C10 1_555 1_555
O1 C7 1_555 1_555
H9 O1 1_555 1_555
O2 C7 1_555 1_555
O3 C11 1_555 1_555
O4 C12 1_555 1_555
O5 C13 1_555 1_555
O6 P1 1_555 1_555
O7 P1 1_555 1_555
O8 P1 1_555 1_555
Nd1E O3 1_555 1_555
Nd1A O4 1_555 1_555
Nd1B O5 1_555 1_555
Nd1E_2 O6 1_555 1_555
Nd1B_2 O7 1_555 1_555
Nd1F O8 1_555 1_555
O3E Nd1 1_555 1_555
O4A Nd1 1_555 1_555
O5B Nd1 1_555 1_555
O6E Nd1 1_555 1_555
O7B Nd1 1_555 1_555
O8F Nd1 1_555 1_555
C5 C6 1_555 1_555
C12 C13 1_555 1_555

#END
