
#######################################################################
#
#                 Cambridge Crystallographic Data Centre
#                                CCDC 
#
#######################################################################
#
# If this CIF has been generated from an entry in the Cambridge 
# Structural Database, then it will include bibliographic, chemical, 
# crystal, experimental, refinement or atomic coordinate data resulting 
# from the CCDC's data processing and validation procedures.
#
#######################################################################

data_YUCFOS
_symmetry_cell_setting           triclinic
_symmetry_space_group_name_H-M   'P -1'
_symmetry_Int_Tables_number      2
_space_group_name_Hall           '-P 1'
loop_
_symmetry_equiv_pos_site_id
_symmetry_equiv_pos_as_xyz
1 x,y,z
2 -x,-y,-z
_cell_length_a                   6.5942(3)
_cell_length_b                   8.1284(1)
_cell_length_c                   9.1655(3)
_cell_angle_alpha                105.882(2)
_cell_angle_beta                 101.050(2)
_cell_angle_gamma                107.999(2)
_cell_volume                     428.418
loop_
_atom_site_label
_atom_site_type_symbol
_atom_site_fract_x
_atom_site_fract_y
_atom_site_fract_z
O5 O 0.0728(15) 0.8427(13) 0.4530(9)
N1 N 1.1018(19) 0.5056(15) 0.3859(13)
H1 H 1.0003 0.4176 0.3041
H2 H 1.0760 0.6002 0.4342
Cu1 Cu 1.12335(8) 0.12526(7) 0.14204(6)
O1 O 0.8892(5) -0.0076(5) 0.2201(4)
O2 O 1.3203(5) 0.2129(4) 0.0206(4)
O3 O 0.9395(5) 0.2588(4) 0.0790(4)
O4 O 1.2652(6) -0.0500(5) 0.1609(4)
N2 N 1.3453(6) 0.3510(5) 0.3666(4)
C1 C 0.7176(7) -0.1474(6) 0.1260(6)
C2 C 0.5496(7) -0.2438(7) 0.1977(6)
H3 H 0.5526 -0.1540 0.2938
H4 H 0.5926 -0.3369 0.2272
C3 C 0.3119(7) -0.3360(7) 0.0835(6)
H5 H 0.3138 -0.4140 -0.0171
H6 H 0.2185 -0.4157 0.1265
C4 C 0.7924(7) 0.2043(7) -0.0524(6)
C5 C 1.4515(8) 0.6426(7) 0.5702(5)
H7 H 1.4122 0.7403 0.6169
C6 C 1.2959(8) 0.4953(7) 0.4372(6)
O2A O 0.6797(5) -0.2129(4) -0.0206(4)
O4A O 0.7348(6) 0.0500(5) -0.1609(4)
N2A N 1.6547(6) 0.6490(5) 0.6334(4)
C1A C 1.2824(7) 0.1474(6) -0.1260(6)
C3A C 0.6881(7) 0.3360(7) -0.0835(6)
C4A C 1.2076(7) -0.2043(7) 0.0524(6)
C4A_2 C 0.2076(7) -0.2043(7) 0.0524(6)
C5A C 1.5485(8) 0.3574(7) 0.4298(5)
loop_
_geom_bond_atom_site_label_1
_geom_bond_atom_site_label_2
_geom_bond_site_symmetry_1
_geom_bond_site_symmetry_2
N1 H1 1_555 1_555
H2 N1 1_555 1_555
Cu1 O1 1_555 1_555
O1 C1 1_555 1_555
O2 Cu1 1_555 1_555
O3 Cu1 1_555 1_555
O4 Cu1 1_555 1_555
N2 Cu1 1_555 1_555
C1 C2 1_555 1_555
C2 H3 1_555 1_555
H4 C2 1_555 1_555
C3 C2 1_555 1_555
H5 C3 1_555 1_555
H6 C3 1_555 1_555
C4 O3 1_555 1_555
C5 H7 1_555 1_555
C6 N1 1_555 1_555
O2A C1 1_555 1_555
O4A C4 1_555 1_555
N2A C5 1_555 1_555
C1A O2 1_555 1_555
C3A C4 1_555 1_555
C4A O4 1_555 1_555
C4A_2 C3 1_555 1_555
C5A N2 1_555 1_555
N2 C6 1_555 1_555
C5 C6 1_555 1_555

#END
