
#######################################################################
#
#                 Cambridge Crystallographic Data Centre
#                                CCDC 
#
#######################################################################
#
# If this CIF has been generated from an entry in the Cambridge 
# Structural Database, then it will include bibliographic, chemical, 
# crystal, experimental, refinement or atomic coordinate data resulting 
# from the CCDC's data processing and validation procedures.
#
#######################################################################

data_YUCGIO
_symmetry_cell_setting           triclinic
_symmetry_space_group_name_H-M   'P -1'
_symmetry_Int_Tables_number      2
_space_group_name_Hall           '-P 1'
loop_
_symmetry_equiv_pos_site_id
_symmetry_equiv_pos_as_xyz
1 x,y,z
2 -x,-y,-z
_cell_length_a                   7.1577(5)
_cell_length_b                   9.9319(10)
_cell_length_c                   14.9339(17)
_cell_angle_alpha                71.781(10)
_cell_angle_beta                 82.756(8)
_cell_angle_gamma                75.432(8)
_cell_volume                     974.7
loop_
_atom_site_label
_atom_site_type_symbol
_atom_site_fract_x
_atom_site_fract_y
_atom_site_fract_z
Tb1 Tb 0.16372(3) 0.32951(3) 0.591747(17)
Tb2 Tb 0.38905(3) 0.55691(3) 0.376642(17)
O1 O 0.3450(5) 0.1543(4) 0.7078(3)
O2 O 0.0023(5) 0.1234(4) 0.6349(3)
O3 O 0.7524(5) -0.1844(4) 0.5112(3)
O4 O 0.6532(6) -0.3440(4) 0.6367(3)
O5 O 0.4728(5) 0.3596(4) 0.5250(2)
O6 O 0.0775(5) 0.6267(4) 0.2920(2)
O7 O -0.0833(5) 0.3127(4) 0.3353(3)
O8 O 0.6388(5) 0.1876(4) 0.7114(3)
O9 O -0.2861(5) 0.5241(4) 0.3328(3)
C1 C 0.5713(7) -0.0468(6) 0.7991(4)
O10 O 0.3534(5) 0.5869(4) 0.2121(3)
O11 O 0.1316(5) 0.5783(4) 0.4856(3)
C2 C 0.7716(8) -0.0854(7) 0.8358(5)
H1 H 0.7940 -0.1812 0.8798
H2 H 0.7816 -0.0163 0.8668
H3 H 0.8661 -0.0831 0.7840
C3 C 0.0712(7) 0.6542(6) 0.1232(4)
C4 C 0.0623(8) 0.8164(6) 0.0757(4)
H4 H 0.0034 0.8463 0.0162
H5 H 0.1909 0.8329 0.0655
H6 H -0.0128 0.8717 0.1156
C5 C 0.5502(9) -0.1475(6) 0.7434(4)
H7 H 0.6100 -0.2470 0.7767
H8 H 0.4140 -0.1420 0.7398
C6 C 0.4277(9) -0.0665(7) 0.8845(5)
H9 H 0.4580 -0.1655 0.9237
H10 H 0.2990 -0.0434 0.8634
H11 H 0.4357 -0.0029 0.9201
C7 C -0.1402(7) 0.6355(6) 0.1384(4)
H12 H -0.1972 0.6706 0.0774
H13 H -0.2120 0.6971 0.1762
C8 C 0.1715(7) 0.6177(6) 0.2136(4)
C9 C 0.5150(7) 0.1096(5) 0.7356(4)
C10 C 0.6829(7) -0.2216(6) 0.5949(4)
C11 C -0.1675(8) 0.4814(6) 0.1860(4)
H14 H -0.0632 0.4147 0.1632
H15 H -0.2873 0.4737 0.1661
C12 C -0.1729(7) 0.4329(6) 0.2911(4)
C13 C 0.1912(8) 0.5643(7) 0.0597(4)
H16 H 0.1266 0.5877 0.0024
H17 H 0.2052 0.4625 0.0922
H18 H 0.3165 0.5865 0.0450
C14 C 0.6400(9) -0.1092(6) 0.6466(4)
H19 H 0.7603 -0.0831 0.6500
H20 H 0.5555 -0.0228 0.6090
H21 H -0.115(10) 0.122(7) 0.673(5)
H22 H -0.036(8) 0.103(6) 0.587(4)
Tb1A Tb -0.16372(3) 0.67049(3) 0.408253(17)
Tb1A_2 Tb 0.83628(3) -0.32951(3) 0.408253(17)
Tb2_2 Tb -0.61095(3) 0.55691(3) 0.376642(17)
Tb2A Tb 0.61095(3) -0.55691(3) 0.623358(17)
Tb2A_2 Tb 0.61095(3) 0.44309(3) 0.623358(17)
O3A O 0.2476(5) 0.1844(4) 0.4888(3)
O4A O 0.3468(6) 0.3440(4) 0.3633(3)
O5A O 0.5272(5) 0.6404(4) 0.4750(2)
O6A O -0.0775(5) 0.3733(4) 0.7080(2)
O8A O 0.3612(5) 0.8124(4) 0.2886(3)
O9_2 O 0.7139(5) 0.5241(4) 0.3328(3)
O9A O 0.2861(5) 0.4759(4) 0.6672(3)
O11A O -0.1316(5) 0.4217(4) 0.5144(3)
O12 O 0.7829(6) 0.1223(5) 0.4857(3)
H23 H 0.8151 0.1746 0.4318
H24 H 0.7928 0.0362 0.4835
loop_
_geom_bond_atom_site_label_1
_geom_bond_atom_site_label_2
_geom_bond_site_symmetry_1
_geom_bond_site_symmetry_2
Tb1 O1 1_555 1_555
Tb2 O5 1_555 1_555
O1 C9 1_555 1_555
O2 Tb1 1_555 1_555
O3 C10 1_555 1_555
O4 C10 1_555 1_555
O5 Tb1 1_555 1_555
O6 Tb2 1_555 1_555
O7 C12 1_555 1_555
O8 C9 1_555 1_555
O9 C12 1_555 1_555
C1 C2 1_555 1_555
O10 Tb2 1_555 1_555
O11 Tb1 1_555 1_555
C2 H1 1_555 1_555
H2 C2 1_555 1_555
H3 C2 1_555 1_555
C3 C4 1_555 1_555
C4 H4 1_555 1_555
H5 C4 1_555 1_555
H6 C4 1_555 1_555
C5 C1 1_555 1_555
H7 C5 1_555 1_555
H8 C5 1_555 1_555
C6 C1 1_555 1_555
H9 C6 1_555 1_555
H10 C6 1_555 1_555
H11 C6 1_555 1_555
C7 C3 1_555 1_555
H12 C7 1_555 1_555
H13 C7 1_555 1_555
C8 O6 1_555 1_555
C9 C1 1_555 1_555
C10 C14 1_555 1_555
C11 C7 1_555 1_555
H14 C11 1_555 1_555
H15 C11 1_555 1_555
C12 C11 1_555 1_555
C13 C3 1_555 1_555
H16 C13 1_555 1_555
H17 C13 1_555 1_555
H18 C13 1_555 1_555
C14 C5 1_555 1_555
H19 C14 1_555 1_555
H20 C14 1_555 1_555
H21 O2 1_555 1_555
H22 O2 1_555 1_555
O12 H23 1_555 1_555
H24 O12 1_555 1_555
Tb1A O6 1_555 1_555
Tb1A_2 O3 1_555 1_555
Tb2_2 O9 1_555 1_555
Tb2A O4 1_555 1_555
Tb2A_2 O5 1_555 1_555
O3A Tb1 1_555 1_555
O4A Tb2 1_555 1_555
O5A Tb2 1_555 1_555
O6A Tb1 1_555 1_555
O8A Tb2 1_555 1_555
O9_2 Tb2 1_555 1_555
O9A Tb1 1_555 1_555
O11A Tb1 1_555 1_555
Tb2 O11 1_555 1_555
O8 Tb2A_2 1_555 1_555
O9 Tb1A 1_555 1_555
O10 C8 1_555 1_555
O11 Tb1A 1_555 1_555
C3 C8 1_555 1_555
Tb1A O11A 1_555 1_555
Tb2A_2 O5A 1_555 1_555
Tb2A_2 O9A 1_555 1_555

#END
