
#######################################################################
#
#                 Cambridge Crystallographic Data Centre
#                                CCDC 
#
#######################################################################
#
# If this CIF has been generated from an entry in the Cambridge 
# Structural Database, then it will include bibliographic, chemical, 
# crystal, experimental, refinement or atomic coordinate data resulting 
# from the CCDC's data processing and validation procedures.
#
#######################################################################

data_YUCJIQ
_symmetry_cell_setting           monoclinic
_symmetry_space_group_name_H-M   'P 21/n'
_symmetry_Int_Tables_number      14
_space_group_name_Hall           '-P 2yn'
loop_
_symmetry_equiv_pos_site_id
_symmetry_equiv_pos_as_xyz
1 x,y,z
2 1/2-x,1/2+y,1/2-z
3 -x,-y,-z
4 1/2+x,1/2-y,1/2+z
_cell_length_a                   8.5731(3)
_cell_length_b                   15.4267(5)
_cell_length_c                   13.0059(4)
_cell_angle_alpha                90
_cell_angle_beta                 98.754(1)
_cell_angle_gamma                90
_cell_volume                     1700.05
loop_
_atom_site_label
_atom_site_type_symbol
_atom_site_fract_x
_atom_site_fract_y
_atom_site_fract_z
Zn1 Zn 0.66816(2) 0.066371(13) 0.219146(17)
O1 O 0.80544(16) 0.04419(9) 0.11491(11)
O2 O 0.67945(17) -0.05999(9) 0.01550(11)
O3 O 0.78055(18) 0.04175(11) 0.35692(12)
O4 O 0.97732(19) 0.13059(10) 0.33316(13)
N1 N 0.48484(19) -0.01781(10) 0.21156(13)
N2 N 0.45485(19) -0.08294(10) 0.14128(13)
H1 H 0.5172 -0.0969 0.0960
N3 N -0.04862(19) -0.32094(11) 0.30971(13)
N4 N 0.1030(2) -0.32478(11) 0.35861(14)
H2 H 0.1463 -0.3711 0.3905
C1 C 0.3645(2) -0.01811(12) 0.26630(15)
C2 C 0.2561(2) -0.08320(12) 0.22911(16)
C3 C 0.3187(2) -0.12349(12) 0.14914(15)
C4 C 0.3593(3) 0.04422(14) 0.35394(17)
H3 H 0.4580 0.0773 0.3662
H4 H 0.3462 0.0121 0.4171
H5 H 0.2703 0.0841 0.3359
C5 C 0.2616(3) -0.19823(13) 0.08056(17)
H6 H 0.2847 -0.1875 0.0101
H7 H 0.1475 -0.2049 0.0784
H8 H 0.3152 -0.2513 0.1082
C6 C 0.1015(2) -0.10071(13) 0.26614(17)
H9 H 0.0152 -0.0829 0.2107
H10 H 0.0951 -0.0637 0.3275
C7 C -0.0665(2) -0.24027(12) 0.27095(16)
C8 C 0.0735(2) -0.19325(12) 0.29500(15)
C9 C 0.1786(2) -0.24937(14) 0.35228(17)
C10 C -0.2208(3) -0.20986(15) 0.2137(2)
H11 H -0.2980 -0.2571 0.2096
H12 H -0.2073 -0.1920 0.1433
H13 H -0.2585 -0.1606 0.2506
C11 C 0.3471(3) -0.23822(18) 0.4011(3)
H14 H 0.3735 -0.2814 0.4563
H15 H 0.3621 -0.1799 0.4308
H16 H 0.4160 -0.2461 0.3482
C12 C 0.7938(2) -0.01061(12) 0.04158(15)
C13 C 0.9310(2) -0.01803(12) -0.01647(15)
H17 H 0.9181 -0.0500 -0.0796
C14 C 0.9183(3) 0.07488(14) 0.38277(17)
C15 C 1.0131(3) 0.03854(15) 0.47990(16)
H18 H 1.0971 0.0727 0.5148
Zn1B Zn 1.33184(2) -0.066371(13) -0.219146(17)
Zn1A Zn -0.16816(2) -0.433629(13) 0.280854(17)
Zn1B_2 Zn 1.33184(2) -0.066371(13) 0.780854(17)
Zn1A_2 Zn -0.16816(2) 0.566371(13) 0.280854(17)
O1B O 1.19456(16) -0.04419(9) -0.11491(11)
O2B O 1.32055(17) 0.05999(9) -0.01550(11)
O3B O 1.21945(18) -0.04175(11) 0.64308(12)
O3B_2 O 1.21945(18) -0.04175(11) -0.35692(12)
O4B O 1.02268(19) -0.13059(10) 0.66684(13)
N1A N 0.01516(19) 0.48219(10) 0.28844(13)
N1B N 1.51516(19) 0.01781(10) -0.21156(13)
N2A N 0.04515(19) 0.41706(10) 0.35872(13)
H1A H -0.0172 0.4031 0.4040
N3A N 0.54862(19) 0.17906(11) 0.19029(13)
N3C N 1.45138(19) -0.17906(11) -0.19029(13)
N4A N 0.3970(2) 0.17522(11) 0.14139(14)
H2A H 0.3537 0.1289 0.1095
C1A C 0.1355(2) 0.48189(12) 0.23370(15)
C2A C 0.2439(2) 0.41680(12) 0.27089(16)
C3A C 0.1813(2) 0.37651(12) 0.35086(15)
C4A C 0.1407(3) 0.54422(14) 0.14606(17)
H3A H 0.0420 0.5773 0.1338
H4A H 0.1538 0.5121 0.0829
H5A H 0.2297 0.5841 0.1641
C5A C 0.2384(3) 0.30177(13) 0.41944(17)
H6A H 0.2153 0.3125 0.4899
H7A H 0.3525 0.2951 0.4216
H8A H 0.1848 0.2487 0.3918
C6A C 0.3985(2) 0.39929(13) 0.23386(17)
H9A H 0.4848 0.4171 0.2893
H10A H 0.4049 0.4363 0.1725
C7A C 0.5665(2) 0.25973(12) 0.22905(16)
C8A C 0.4265(2) 0.30675(12) 0.20500(15)
C9A C 0.3214(2) 0.25063(14) 0.14772(17)
C10A C 0.7208(3) 0.29014(15) 0.2863(2)
H11A H 0.7980 0.2429 0.2904
H12A H 0.7073 0.3080 0.3567
H13A H 0.7585 0.3394 0.2494
C11A C 0.1529(3) 0.26178(18) 0.0989(3)
H14A H 0.1265 0.2186 0.0437
H15A H 0.1379 0.3201 0.0692
H16A H 0.0840 0.2539 0.1518
C12B C 1.2062(2) 0.01061(12) -0.04158(15)
C13B C 1.0690(2) 0.01803(12) 0.01647(15)
H17B H 1.0819 0.0500 0.0796
C14B C 1.0817(3) -0.07488(14) 0.61723(17)
C15B C 0.9869(3) -0.03854(15) 0.52010(16)
H18B H 0.9029 -0.0727 0.4852
loop_
_geom_bond_atom_site_label_1
_geom_bond_atom_site_label_2
_geom_bond_site_symmetry_1
_geom_bond_site_symmetry_2
Zn1 O1 1_555 1_555
O1 C12 1_555 1_555
O2 C12 1_555 1_555
O3 Zn1 1_555 1_555
O4 C14 1_555 1_555
N1 Zn1 1_555 1_555
N2 N1 1_555 1_555
H1 N2 1_555 1_555
N3 N4 1_555 1_555
N4 H2 1_555 1_555
C1 N1 1_555 1_555
C2 C1 1_555 1_555
C3 N2 1_555 1_555
C4 C1 1_555 1_555
H3 C4 1_555 1_555
H4 C4 1_555 1_555
H5 C4 1_555 1_555
C5 C3 1_555 1_555
H6 C5 1_555 1_555
H7 C5 1_555 1_555
H8 C5 1_555 1_555
C6 C2 1_555 1_555
H9 C6 1_555 1_555
H10 C6 1_555 1_555
C7 N3 1_555 1_555
C8 C6 1_555 1_555
C9 N4 1_555 1_555
C10 C7 1_555 1_555
H11 C10 1_555 1_555
H12 C10 1_555 1_555
H13 C10 1_555 1_555
C11 C9 1_555 1_555
H14 C11 1_555 1_555
H15 C11 1_555 1_555
H16 C11 1_555 1_555
C12 C13 1_555 1_555
C13 H17 1_555 1_555
C14 O3 1_555 1_555
C15 C14 1_555 1_555
H18 C15 1_555 1_555
Zn1B O1B 1_555 1_555
Zn1A N3 1_555 1_555
Zn1B_2 O3B 1_555 1_555
Zn1A_2 N1A 1_555 1_555
O1B C12B 1_555 1_555
O2B C12B 1_555 1_555
O3B C14B 1_555 1_555
O3B_2 Zn1B 1_555 1_555
O4B C14B 1_555 1_555
N1A N2A 1_555 1_555
N1B Zn1B 1_555 1_555
N2A H1A 1_555 1_555
N3A Zn1 1_555 1_555
N3C Zn1B 1_555 1_555
N4A N3A 1_555 1_555
H2A N4A 1_555 1_555
C1A N1A 1_555 1_555
C2A C1A 1_555 1_555
C3A N2A 1_555 1_555
C4A C1A 1_555 1_555
H3A C4A 1_555 1_555
H4A C4A 1_555 1_555
H5A C4A 1_555 1_555
C5A C3A 1_555 1_555
H6A C5A 1_555 1_555
H7A C5A 1_555 1_555
H8A C5A 1_555 1_555
C6A C2A 1_555 1_555
H9A C6A 1_555 1_555
H10A C6A 1_555 1_555
C7A N3A 1_555 1_555
C8A C6A 1_555 1_555
C9A N4A 1_555 1_555
C10A C7A 1_555 1_555
H11A C10A 1_555 1_555
H12A C10A 1_555 1_555
H13A C10A 1_555 1_555
C11A C9A 1_555 1_555
H14A C11A 1_555 1_555
H15A C11A 1_555 1_555
H16A C11A 1_555 1_555
C12B C13B 1_555 1_555
C13B C13 1_555 1_555
H17B C13B 1_555 1_555
C14B C15B 1_555 1_555
C15B C15 1_555 1_555
H18B C15B 1_555 1_555
C2 C3 1_555 1_555
C7 C8 1_555 1_555
C8 C9 1_555 1_555
C2A C3A 1_555 1_555
C7A C8A 1_555 1_555
C8A C9A 1_555 1_555

#END
