
#######################################################################
#
#                 Cambridge Crystallographic Data Centre
#                                CCDC 
#
#######################################################################
#
# If this CIF has been generated from an entry in the Cambridge 
# Structural Database, then it will include bibliographic, chemical, 
# crystal, experimental, refinement or atomic coordinate data resulting 
# from the CCDC's data processing and validation procedures.
#
#######################################################################

data_YUCJEM
_symmetry_cell_setting           tetragonal
_symmetry_space_group_name_H-M   'P 41 21 2'
_symmetry_Int_Tables_number      92
_space_group_name_Hall           'P 4abw 2nw'
loop_
_symmetry_equiv_pos_site_id
_symmetry_equiv_pos_as_xyz
1 x,y,z
2 1/2-y,1/2+x,1/4+z
3 -x,-y,1/2+z
4 1/2+y,1/2-x,3/4+z
5 1/2+x,1/2-y,3/4-z
6 1/2-x,1/2+y,1/4-z
7 y,x,-z
8 -y,-x,1/2-z
_cell_length_a                   13.4503(3)
_cell_length_b                   13.4503(3)
_cell_length_c                   21.2120(8)
_cell_angle_alpha                90
_cell_angle_beta                 90
_cell_angle_gamma                90
_cell_volume                     3837.48
loop_
_atom_site_label
_atom_site_type_symbol
_atom_site_fract_x
_atom_site_fract_y
_atom_site_fract_z
Zn1 Zn 0.241698(16) 0.795411(16) 0.065237(10)
O1 O 0.18458(11) 0.70050(12) 0.00710(7)
O2 O 0.02395(11) 0.73733(13) -0.00407(7)
O3 O -0.18824(11) 0.60185(11) -0.26912(7)
O4 O -0.04128(12) 0.67319(12) -0.25150(7)
N1 N 0.33476(12) 0.71297(13) 0.11719(7)
N2 N 0.43422(12) 0.71246(14) 0.10555(8)
H1 H 0.4626 0.7422 0.0732
N3 N 0.13559(12) 0.86350(13) 0.11595(8)
N4 N 0.03837(13) 0.84212(14) 0.10579(8)
H2 H 0.0162 0.8058 0.0743
C1 C 0.13863(15) 0.91950(16) 0.16808(9)
C2 C 0.04195(16) 0.93315(16) 0.19154(9)
C3 C -0.01989(16) 0.88367(17) 0.15013(10)
C4 C 0.23431(16) 0.96025(16) 0.19232(10)
H3 H 0.2887 0.9400 0.1644
H4 H 0.2466 0.9346 0.2349
H5 H 0.2306 1.0330 0.1937
C5 C -0.13044(17) 0.8724(2) 0.14870(13)
H6 H -0.1509 0.8464 0.1075
H7 H -0.1617 0.9373 0.1557
H8 H -0.1512 0.8262 0.1819
C6 C 0.01076(16) 0.98924(16) 0.2500
H9 H -0.0612 0.9786 0.2571
C7 C 0.32172(15) 0.65863(14) 0.16955(8)
C8 C 0.41375(15) 0.62545(15) 0.19231(9)
C9 C 0.48352(15) 0.66073(16) 0.14978(9)
C10 C 0.21900(15) 0.63908(16) 0.19315(10)
H10 H 0.2091 0.6738 0.2333
H11 H 0.2100 0.5675 0.1995
H12 H 0.1705 0.6631 0.1622
C11 C 0.59398(16) 0.64872(18) 0.14674(10)
H13 H 0.6158 0.6522 0.1027
H14 H 0.6126 0.5841 0.1646
H15 H 0.6259 0.7020 0.1709
C12 C 0.43660(15) 0.56340(15) 0.2500
H16 H 0.5075 0.5728 0.2610
C13 C 0.10008(16) 0.69168(16) -0.01966(9)
C14 C 0.10022(17) 0.62060(18) -0.07472(11)
H17 H 0.1253 0.5556 -0.0596
H18 H 0.1484 0.6456 -0.1063
C15 C 0.00208(16) 0.60283(16) -0.10798(10)
H19 H -0.0234 0.6664 -0.1250
H20 H -0.0473 0.5768 -0.0775
C16 C 0.01573(17) 0.52858(17) -0.16151(11)
H21 H 0.0331 0.4631 -0.1433
H22 H 0.0723 0.5504 -0.1880
C17 C -0.07563(17) 0.51625(16) -0.20341(10)
H23 H -0.0646 0.4586 -0.2315
H24 H -0.1333 0.5004 -0.1762
C18 C -0.10206(16) 0.60501(16) -0.24359(9)
Zn1D Zn 0.741698(16) 0.704589(16) -0.315237(10)
Zn1D_2 Zn -0.258302(16) 0.704589(16) -0.315237(10)
Zn1G Zn 0.204589(16) 0.758302(16) 0.434763(10)
O1D O 0.68458(11) 0.79950(12) -0.25710(7)
O2D O 0.52395(11) 0.76267(13) -0.24593(7)
O3D O 0.31176(11) 0.89815(11) 0.01912(7)
O3_2 O 0.81176(11) 0.60185(11) -0.26912(7)
O4D O 0.45872(12) 0.82681(12) 0.00150(7)
N1G N 0.28703(13) 0.66524(12) 0.38281(7)
N1D N 0.83476(12) 0.78703(13) -0.36719(7)
N2G N 0.28754(14) 0.56578(12) 0.39445(8)
H1G H 0.2578 0.5374 0.4268
N3G N 0.13650(13) 0.86441(12) 0.38405(8)
N3D N 0.63559(12) 0.63650(13) -0.36595(8)
N4G N 0.15788(14) 0.96163(13) 0.39421(8)
H2G H 0.1942 0.9838 0.4257
C1G C 0.08050(16) 0.86137(15) 0.33192(9)
C2G C 0.06685(16) 0.95805(16) 0.30846(9)
C3G C 0.11633(17) 1.01989(16) 0.34987(10)
C4G C 0.03975(16) 0.76569(16) 0.30768(10)
H3G H 0.0600 0.7113 0.3356
H4G H 0.0654 0.7534 0.2651
H5G H -0.0330 0.7694 0.3063
C5G C 0.1276(2) 1.13044(17) 0.35130(13)
H6G H 0.1536 1.1509 0.3925
H7G H 0.0627 1.1617 0.3443
H8G H 0.1738 1.1512 0.3181
H9G H 0.0214 1.0612 0.2429
C7G C 0.34137(14) 0.67828(15) 0.33045(8)
C8G C 0.37455(15) 0.58625(15) 0.30769(9)
C9G C 0.33927(16) 0.51648(15) 0.35022(9)
C10G C 0.36092(16) 0.78100(15) 0.30685(10)
H10G H 0.3262 0.7909 0.2667
H11G H 0.4325 0.7900 0.3005
H12G H 0.3369 0.8295 0.3378
C11G C 0.35128(18) 0.40602(16) 0.35326(10)
H13G H 0.3478 0.3842 0.3973
H14G H 0.4159 0.3874 0.3354
H15G H 0.2980 0.3741 0.3291
H16G H 0.4272 0.4925 0.2390
C13D C 0.60008(16) 0.80832(16) -0.23034(9)
C14D C 0.60022(17) 0.87940(18) -0.17528(11)
H17D H 0.6253 0.9444 -0.1904
H18D H 0.6484 0.8544 -0.1437
C15D C 0.50208(16) 0.89717(16) -0.14202(10)
H19D H 0.4766 0.8336 -0.1250
H20D H 0.4527 0.9232 -0.1725
C16D C 0.51573(17) 0.97142(17) -0.08849(11)
H21D H 0.5331 1.0369 -0.1067
H22D H 0.5723 0.9496 -0.0620
C17D C 0.42437(17) 0.98375(16) -0.04659(10)
H23D H 0.4354 1.0414 -0.0185
H24D H 0.3667 0.9996 -0.0738
C18D C 0.39794(16) 0.89499(16) -0.00641(9)
O5 O -0.3811(3) 0.7105(4) -0.0111(2)
O6? O -0.3203(4) 0.8190(4) -0.0080(2)
O7? O -0.1892(10) 0.8108(10) 0.0000
loop_
_geom_bond_atom_site_label_1
_geom_bond_atom_site_label_2
_geom_bond_site_symmetry_1
_geom_bond_site_symmetry_2
Zn1 O1 1_555 1_555
O1 C13 1_555 1_555
O2 C13 1_555 1_555
O3 C18 1_555 1_555
O4 C18 1_555 1_555
N1 Zn1 1_555 1_555
N2 N1 1_555 1_555
H1 N2 1_555 1_555
N3 Zn1 1_555 1_555
N4 N3 1_555 1_555
H2 N4 1_555 1_555
C1 N3 1_555 1_555
C2 C1 1_555 1_555
C3 N4 1_555 1_555
C4 C1 1_555 1_555
H3 C4 1_555 1_555
H4 C4 1_555 1_555
H5 C4 1_555 1_555
C5 C3 1_555 1_555
H6 C5 1_555 1_555
H7 C5 1_555 1_555
H8 C5 1_555 1_555
C6 C2 1_555 1_555
H9 C6 1_555 1_555
C7 N1 1_555 1_555
C8 C7 1_555 1_555
C9 N2 1_555 1_555
C10 C7 1_555 1_555
H10 C10 1_555 1_555
H11 C10 1_555 1_555
H12 C10 1_555 1_555
C11 C9 1_555 1_555
H13 C11 1_555 1_555
H14 C11 1_555 1_555
H15 C11 1_555 1_555
C12 C8 1_555 1_555
H16 C12 1_555 1_555
C13 C14 1_555 1_555
C14 H17 1_555 1_555
H18 C14 1_555 1_555
C15 C14 1_555 1_555
H19 C15 1_555 1_555
H20 C15 1_555 1_555
C16 C15 1_555 1_555
H21 C16 1_555 1_555
H22 C16 1_555 1_555
C17 C16 1_555 1_555
H23 C17 1_555 1_555
H24 C17 1_555 1_555
C18 C17 1_555 1_555
Zn1D O1D 1_555 1_555
Zn1D_2 O3 1_555 1_555
Zn1G N1G 1_555 1_555
O1D C13D 1_555 1_555
O2D C13D 1_555 1_555
O3D Zn1 1_555 1_555
O3_2 Zn1D 1_555 1_555
O4D C18D 1_555 1_555
N1G N2G 1_555 1_555
N1D Zn1D 1_555 1_555
N2G H1G 1_555 1_555
N3G Zn1G 1_555 1_555
N3D Zn1D 1_555 1_555
N4G N3G 1_555 1_555
H2G N4G 1_555 1_555
C1G N3G 1_555 1_555
C2G C6 1_555 1_555
C3G N4G 1_555 1_555
C4G C1G 1_555 1_555
H3G C4G 1_555 1_555
H4G C4G 1_555 1_555
H5G C4G 1_555 1_555
C5G C3G 1_555 1_555
H6G C5G 1_555 1_555
H7G C5G 1_555 1_555
H8G C5G 1_555 1_555
H9G C6 1_555 1_555
C7G N1G 1_555 1_555
C8G C12 1_555 1_555
C9G N2G 1_555 1_555
C10G C7G 1_555 1_555
H10G C10G 1_555 1_555
H11G C10G 1_555 1_555
H12G C10G 1_555 1_555
C11G C9G 1_555 1_555
H13G C11G 1_555 1_555
H14G C11G 1_555 1_555
H15G C11G 1_555 1_555
H16G C12 1_555 1_555
C13D C14D 1_555 1_555
C14D H17D 1_555 1_555
H18D C14D 1_555 1_555
C15D C14D 1_555 1_555
H19D C15D 1_555 1_555
H20D C15D 1_555 1_555
C16D C15D 1_555 1_555
H21D C16D 1_555 1_555
H22D C16D 1_555 1_555
C17D C16D 1_555 1_555
H23D C17D 1_555 1_555
H24D C17D 1_555 1_555
C18D O3D 1_555 1_555
C2 C3 1_555 1_555
C8 C9 1_555 1_555
C1G C2G 1_555 1_555
C2G C3G 1_555 1_555
C7G C8G 1_555 1_555
C8G C9G 1_555 1_555
C17D C18D 1_555 1_555

#END
