
#######################################################################
#
#                 Cambridge Crystallographic Data Centre
#                                CCDC 
#
#######################################################################
#
# If this CIF has been generated from an entry in the Cambridge 
# Structural Database, then it will include bibliographic, chemical, 
# crystal, experimental, refinement or atomic coordinate data resulting 
# from the CCDC's data processing and validation procedures.
#
#######################################################################

data_YUCKAJ
_symmetry_cell_setting           orthorhombic
_symmetry_space_group_name_H-M   'P 21 21 2'
_symmetry_Int_Tables_number      18
_space_group_name_Hall           'P 2 2ab'
loop_
_symmetry_equiv_pos_site_id
_symmetry_equiv_pos_as_xyz
1 x,y,z
2 -x,-y,z
3 1/2-x,1/2+y,-z
4 1/2+x,1/2-y,-z
_cell_length_a                   18.3051(5)
_cell_length_b                   18.6004(5)
_cell_length_c                   13.0542(4)
_cell_angle_alpha                90
_cell_angle_beta                 90
_cell_angle_gamma                90
_cell_volume                     4444.72
loop_
_atom_site_label
_atom_site_type_symbol
_atom_site_fract_x
_atom_site_fract_y
_atom_site_fract_z
Zn1 Zn 0.02397(2) 0.22479(3) 0.50570(4)
N1 N 0.1057(2) 0.1397(2) 0.6651(3)
H1 H 0.1451 0.1628 0.6509
N2 N 0.0391(2) 0.1563(2) 0.6260(3)
C1 C 0.0000 0.0000 0.7926(5)
N3 N -0.0772(2) 0.1530(2) 0.3642(3)
H2 H -0.1112 0.1823 0.3824
N4 N -0.0081(2) 0.1550(2) 0.3986(3)
C2 C 0.0000 0.0000 0.2221(5)
O1 O -0.04613(17) 0.29768(18) 0.5503(3)
O2 O -0.14516(17) 0.25668(18) 0.4715(3)
C3 C -0.0063(3) 0.1071(3) 0.6661(3)
C4 C -0.0195(3) 0.0645(3) 0.2867(3)
C5 C -0.0852(3) 0.1074(3) 0.6390(4)
H3 H -0.0949 0.1459 0.5920
H4 H -0.1138 0.1140 0.6999
H5 H -0.0979 0.0624 0.6076
C6 C 0.0267(3) 0.1016(3) 0.3534(3)
C7 C -0.1588(3) 0.0846(3) 0.2491(4)
H6 H -0.1931 0.1194 0.2744
H7 H -0.1753 0.0372 0.2664
H8 H -0.1550 0.0889 0.1760
C8 C 0.0319(3) 0.0609(2) 0.7322(3)
C9 C -0.0861(3) 0.0976(3) 0.2962(4)
C10 C 0.1027(3) 0.0831(3) 0.7282(3)
C11 C -0.1459(3) 0.4274(3) 0.4932(4)
H9 H -0.1589 0.4115 0.4248
H10 H -0.0949 0.4415 0.4920
C12 C -0.1549(3) 0.3653(3) 0.5665(4)
H11 H -0.2063 0.3533 0.5728
H12 H -0.1369 0.3789 0.6337
C13 C -0.1787(3) 0.5560(3) 0.4466(4)
H13 H -0.1282 0.5713 0.4526
H14 H -0.1862 0.5397 0.3769
C14 C -0.1129(3) 0.3006(3) 0.5274(3)
C15 C -0.2268(3) 0.6188(3) 0.4659(4)
H15 H -0.2196 0.6357 0.5354
H16 H -0.2775 0.6042 0.4590
C16 C 0.1701(3) 0.0557(3) 0.7790(5)
H17 H 0.2111 0.0845 0.7587
H18 H 0.1783 0.0067 0.7590
H19 H 0.1643 0.0582 0.8520
C17 C -0.1917(3) 0.4923(3) 0.5203(4)
H20 H -0.1802 0.5072 0.5896
H21 H -0.2429 0.4790 0.5183
C18 C 0.1058(3) 0.0870(3) 0.3751(4)
H22 H 0.1237 0.1214 0.4237
H23 H 0.1333 0.0907 0.3127
H24 H 0.1110 0.0394 0.4027
C34 C -0.2110(3) 0.6801(3) 0.3911(4)
H42 H -0.2161 0.6626 0.3215
H43 H -0.2466 0.7181 0.4012
C40 C -0.1358(3) 0.7099(3) 0.4055(4)
O7 O -0.12210(16) 0.73661(17) 0.4934(3)
O8 O -0.0912(3) 0.7090(3) 0.3365(3)
H53 H -0.036(2) 0.014(2) 0.835(3)
H54 H 0.040(3) 0.009(3) 0.182(3)
Zn1A Zn -0.02397(2) -0.22479(3) 0.50570(4)
Zn1A_2 Zn -0.02397(2) 0.77521(3) 0.50570(4)
N1A N -0.1057(2) -0.1397(2) 0.6651(3)
H1A H -0.1451 -0.1628 0.6509
N2A N -0.0391(2) -0.1563(2) 0.6260(3)
N3A N 0.0772(2) -0.1530(2) 0.3642(3)
H2A H 0.1112 -0.1823 0.3824
N4A N 0.0081(2) -0.1550(2) 0.3986(3)
O1A O 0.04613(17) 0.70232(18) 0.5503(3)
O1A_2 O 0.04613(17) -0.29768(18) 0.5503(3)
O2A O 0.14516(17) 0.74332(18) 0.4715(3)
C3A C 0.0063(3) -0.1071(3) 0.6661(3)
C4A C 0.0195(3) -0.0645(3) 0.2867(3)
C5A C 0.0852(3) -0.1074(3) 0.6390(4)
H3A H 0.0949 -0.1459 0.5920
H4A H 0.1138 -0.1140 0.6999
H5A H 0.0979 -0.0624 0.6076
C6A C -0.0267(3) -0.1016(3) 0.3534(3)
C7A C 0.1588(3) -0.0846(3) 0.2491(4)
H6A H 0.1931 -0.1194 0.2744
H7A H 0.1753 -0.0372 0.2664
H8A H 0.1550 -0.0889 0.1760
C8A C -0.0319(3) -0.0609(2) 0.7322(3)
C9A C 0.0861(3) -0.0976(3) 0.2962(4)
C10A C -0.1027(3) -0.0831(3) 0.7282(3)
C11A C 0.1459(3) 0.5726(3) 0.4932(4)
H9A H 0.1589 0.5885 0.4248
H10A H 0.0949 0.5585 0.4920
C12A C 0.1549(3) 0.6347(3) 0.5665(4)
H11A H 0.2063 0.6467 0.5728
H12A H 0.1369 0.6211 0.6337
C13A C 0.1787(3) 0.4440(3) 0.4466(4)
H13A H 0.1282 0.4287 0.4526
H14A H 0.1862 0.4603 0.3769
C14A C 0.1129(3) 0.6994(3) 0.5274(3)
C15A C 0.2268(3) 0.3812(3) 0.4659(4)
H15A H 0.2196 0.3643 0.5354
H16A H 0.2775 0.3958 0.4590
C16A C -0.1701(3) -0.0557(3) 0.7790(5)
H17A H -0.2111 -0.0845 0.7587
H18A H -0.1783 -0.0067 0.7590
H19A H -0.1643 -0.0582 0.8520
C17A C 0.1917(3) 0.5077(3) 0.5203(4)
H20A H 0.1802 0.4928 0.5896
H21A H 0.2429 0.5210 0.5183
C18A C -0.1058(3) -0.0870(3) 0.3751(4)
H22A H -0.1237 -0.1214 0.4237
H23A H -0.1333 -0.0907 0.3127
H24A H -0.1110 -0.0394 0.4027
C34A C 0.2110(3) 0.3199(3) 0.3911(4)
H42A H 0.2161 0.3374 0.3215
H43A H 0.2466 0.2819 0.4012
C40A C 0.1358(3) 0.2901(3) 0.4055(4)
O7A O 0.12210(16) 0.26339(17) 0.4934(3)
O7_2 O -0.12210(16) -0.26339(17) 0.4934(3)
O8A O 0.0912(3) 0.2910(3) 0.3365(3)
H53A H 0.036(2) -0.014(2) 0.835(3)
H54A H -0.040(3) -0.009(3) 0.182(3)
Zn2 Zn -0.27150(3) -0.01478(3) 0.01155(4)
O3 O -0.20553(19) 0.06049(19) -0.0367(3)
N5 N -0.3422(2) 0.0116(2) 0.1234(3)
N6 N -0.3557(2) -0.0974(2) -0.1445(3)
H25 H -0.3309 -0.1350 -0.1284
C19 C -0.4373(3) -0.0279(3) -0.2144(3)
C20 C -0.2057(3) 0.1266(3) -0.0128(4)
N7 N -0.3426(2) -0.0300(2) -0.1069(3)
C21 C -0.5000 0.0000 -0.2772(6)
N8 N -0.3452(2) 0.0779(3) 0.1630(3)
C22 C -0.5000 0.0000 0.2981(6)
O4 O -0.2494(2) 0.15449(18) 0.0484(3)
C23 C -0.3970(3) -0.0244(3) 0.1664(3)
C24 C -0.4339(3) 0.0201(3) 0.2344(3)
C25 C -0.3926(3) 0.0120(3) -0.1481(3)
C26 C -0.0722(3) 0.1588(3) -0.0112(5)
H26 H -0.0754 0.1692 0.0614
H27 H -0.0588 0.1086 -0.0188
C27 C -0.4005(3) 0.0854(3) 0.2303(3)
C28 C -0.4118(3) -0.0973(3) -0.2095(4)
C29 C -0.4143(3) 0.1559(3) 0.2811(4)
H28 H -0.3787 0.1903 0.2584
H29 H -0.4109 0.1503 0.3540
H30 H -0.4624 0.1726 0.2635
C30 C -0.4364(4) -0.1660(3) -0.2598(5)
H31 H -0.4052 -0.2047 -0.2387
H32 H -0.4339 -0.1608 -0.3329
H33 H -0.4858 -0.1763 -0.2400
C31 C -0.3967(3) 0.0898(3) -0.1231(4)
H34 H -0.3582 0.1020 -0.0762
H35 H -0.4431 0.1002 -0.0923
H36 H -0.3913 0.1175 -0.1847
C32 C -0.4118(3) -0.1016(3) 0.1380(4)
H37 H -0.3762 -0.1173 0.0888
H38 H -0.4598 -0.1054 0.1088
H39 H -0.4088 -0.1311 0.1981
C33 C -0.1473(3) 0.1716(3) -0.0615(5)
H40 H -0.1601 0.2220 -0.0552
H41 H -0.1443 0.1602 -0.1338
C35 C -0.0140(3) 0.2052(4) -0.0589(5)
H44 H -0.0238 0.2551 -0.0418
H45 H -0.0168 0.2006 -0.1328
C36 C 0.0634(3) 0.1864(4) -0.0243(5)
H46 H 0.0729 0.1366 -0.0417
H47 H 0.0976 0.2158 -0.0625
C37 C 0.0776(3) 0.1964(3) 0.0865(4)
H48 H 0.0521 0.1594 0.1247
H49 H 0.0583 0.2426 0.1078
C38 C 0.1596(3) 0.1930(3) 0.1119(5)
H50 H 0.1850 0.2302 0.0739
H51 H 0.1664 0.2025 0.1843
C39 C 0.1928(3) 0.1207(3) 0.0860(4)
O5 O 0.2408(2) 0.1169(2) 0.0184(3)
O6 O 0.1717(3) 0.0652(3) 0.1278(5)
H52 H -0.319(3) 0.110(3) 0.139(4)
H55 H -0.505(3) 0.044(3) 0.330(4)
H56 H -0.485(3) 0.037(3) -0.314(4)
Zn2A Zn 0.27150(3) 0.01478(3) 0.01155(4)
Zn2A_2 Zn -0.72850(3) 0.01478(3) 0.01155(4)
O3A O 0.20553(19) -0.06049(19) -0.0367(3)
N5A N -0.6578(2) -0.0116(2) 0.1234(3)
N5A_2 N 0.3422(2) -0.0116(2) 0.1234(3)
N6A N -0.6443(2) 0.0974(2) -0.1445(3)
H25A H -0.6691 0.1350 -0.1284
C19A C -0.5627(3) 0.0279(3) -0.2144(3)
C20A C 0.2057(3) -0.1266(3) -0.0128(4)
N7A N -0.6574(2) 0.0300(2) -0.1069(3)
N7A_2 N 0.3426(2) 0.0300(2) -0.1069(3)
N8A N -0.6548(2) -0.0779(3) 0.1630(3)
O4A O 0.2494(2) -0.15449(18) 0.0484(3)
C23A C -0.6030(3) 0.0244(3) 0.1664(3)
C24A C -0.5661(3) -0.0201(3) 0.2344(3)
C25A C -0.6074(3) -0.0120(3) -0.1481(3)
C26A C 0.0722(3) -0.1588(3) -0.0112(5)
H26A H 0.0754 -0.1692 0.0614
H27A H 0.0588 -0.1086 -0.0188
C27A C -0.5995(3) -0.0854(3) 0.2303(3)
C28A C -0.5882(3) 0.0973(3) -0.2095(4)
C29A C -0.5857(3) -0.1559(3) 0.2811(4)
H28A H -0.6213 -0.1903 0.2584
H29A H -0.5891 -0.1503 0.3540
H30A H -0.5376 -0.1726 0.2635
C30A C -0.5636(4) 0.1660(3) -0.2598(5)
H31A H -0.5948 0.2047 -0.2387
H32A H -0.5661 0.1608 -0.3329
H33A H -0.5142 0.1763 -0.2400
C31A C -0.6033(3) -0.0898(3) -0.1231(4)
H34A H -0.6418 -0.1020 -0.0762
H35A H -0.5569 -0.1002 -0.0923
H36A H -0.6087 -0.1175 -0.1847
C32A C -0.5882(3) 0.1016(3) 0.1380(4)
H37A H -0.6238 0.1173 0.0888
H38A H -0.5402 0.1054 0.1088
H39A H -0.5912 0.1311 0.1981
C33A C 0.1473(3) -0.1716(3) -0.0615(5)
H40A H 0.1601 -0.2220 -0.0552
H41A H 0.1443 -0.1602 -0.1338
C35A C 0.0140(3) -0.2052(4) -0.0589(5)
H44A H 0.0238 -0.2551 -0.0418
H45A H 0.0168 -0.2006 -0.1328
C36A C -0.0634(3) -0.1864(4) -0.0243(5)
H46A H -0.0729 -0.1366 -0.0417
H47A H -0.0976 -0.2158 -0.0625
C37A C -0.0776(3) -0.1964(3) 0.0865(4)
H48A H -0.0521 -0.1594 0.1247
H49A H -0.0583 -0.2426 0.1078
C38A C -0.1596(3) -0.1930(3) 0.1119(5)
H50A H -0.1850 -0.2302 0.0739
H51A H -0.1664 -0.2025 0.1843
C39A C -0.1928(3) -0.1207(3) 0.0860(4)
O5A O -0.2408(2) -0.1169(2) 0.0184(3)
O6A O -0.1717(3) -0.0652(3) 0.1278(5)
H52A H -0.681(3) -0.110(3) 0.139(4)
H55A H -0.495(3) -0.044(3) 0.330(4)
H56A H -0.515(3) -0.037(3) -0.314(4)
O9 O -0.2366(3) 0.2827(2) 0.1406(4)
H57 H -0.2218 0.2737 0.1814
H58 H -0.2313 0.2303 0.0851
O10 O -0.2687 0.2788 0.3569
H59 H -0.2429 0.2707 0.3874
H60 H -0.2665 0.2654 0.3075
loop_
_geom_bond_atom_site_label_1
_geom_bond_atom_site_label_2
_geom_bond_site_symmetry_1
_geom_bond_site_symmetry_2
Zn1 N2 1_555 1_555
N1 H1 1_555 1_555
N2 N1 1_555 1_555
C1 C8 1_555 1_555
N3 H2 1_555 1_555
N4 Zn1 1_555 1_555
C2 C4 1_555 1_555
O1 Zn1 1_555 1_555
O2 C14 1_555 1_555
C3 N2 1_555 1_555
C4 C6 1_555 1_555
C5 C3 1_555 1_555
H3 C5 1_555 1_555
H4 C5 1_555 1_555
H5 C5 1_555 1_555
C6 N4 1_555 1_555
C7 H6 1_555 1_555
H7 C7 1_555 1_555
H8 C7 1_555 1_555
C8 C3 1_555 1_555
C9 N3 1_555 1_555
C10 N1 1_555 1_555
C11 H9 1_555 1_555
H10 C11 1_555 1_555
C12 C11 1_555 1_555
H11 C12 1_555 1_555
H12 C12 1_555 1_555
C13 H13 1_555 1_555
H14 C13 1_555 1_555
C14 O1 1_555 1_555
C15 C13 1_555 1_555
H15 C15 1_555 1_555
H16 C15 1_555 1_555
C16 C10 1_555 1_555
H17 C16 1_555 1_555
H18 C16 1_555 1_555
H19 C16 1_555 1_555
C17 C11 1_555 1_555
H20 C17 1_555 1_555
H21 C17 1_555 1_555
C18 C6 1_555 1_555
H22 C18 1_555 1_555
H23 C18 1_555 1_555
H24 C18 1_555 1_555
Zn2 O3 1_555 1_555
O3 C20 1_555 1_555
N5 Zn2 1_555 1_555
N6 H25 1_555 1_555
C19 C21 1_555 1_555
C20 O4 1_555 1_555
N7 Zn2 1_555 1_555
C21 H56 1_555 1_555
N8 N5 1_555 1_555
C22 C24 1_555 1_555
C23 N5 1_555 1_555
C24 C23 1_555 1_555
C25 C19 1_555 1_555
C26 H26 1_555 1_555
H27 C26 1_555 1_555
C27 N8 1_555 1_555
C28 N6 1_555 1_555
C29 C27 1_555 1_555
H28 C29 1_555 1_555
H29 C29 1_555 1_555
H30 C29 1_555 1_555
C30 C28 1_555 1_555
H31 C30 1_555 1_555
H32 C30 1_555 1_555
H33 C30 1_555 1_555
C31 C25 1_555 1_555
H34 C31 1_555 1_555
H35 C31 1_555 1_555
H36 C31 1_555 1_555
C32 C23 1_555 1_555
H37 C32 1_555 1_555
H38 C32 1_555 1_555
H39 C32 1_555 1_555
C33 C20 1_555 1_555
H40 C33 1_555 1_555
H41 C33 1_555 1_555
C34 C15 1_555 1_555
H42 C34 1_555 1_555
H43 C34 1_555 1_555
C35 C26 1_555 1_555
H44 C35 1_555 1_555
H45 C35 1_555 1_555
C36 C35 1_555 1_555
H46 C36 1_555 1_555
H47 C36 1_555 1_555
C37 C36 1_555 1_555
H48 C37 1_555 1_555
H49 C37 1_555 1_555
C38 C37 1_555 1_555
H50 C38 1_555 1_555
H51 C38 1_555 1_555
C39 C38 1_555 1_555
O5 C39 1_555 1_555
O6 C39 1_555 1_555
C40 C34 1_555 1_555
O7 C40 1_555 1_555
O8 C40 1_555 1_555
H52 N8 1_555 1_555
H53 C1 1_555 1_555
H54 C2 1_555 1_555
H55 C22 1_555 1_555
O9 H57 1_555 1_555
H58 O9 1_555 1_555
O10 H59 1_555 1_555
H60 O10 1_555 1_555
Zn1A N2A 1_555 1_555
Zn1A_2 O7 1_555 1_555
N1A H1A 1_555 1_555
N2A N1A 1_555 1_555
N3A H2A 1_555 1_555
N4A Zn1A 1_555 1_555
O1A Zn1A_2 1_555 1_555
O1A_2 Zn1A 1_555 1_555
O2A C14A 1_555 1_555
C3A N2A 1_555 1_555
C4A C2 1_555 1_555
C5A C3A 1_555 1_555
H3A C5A 1_555 1_555
H4A C5A 1_555 1_555
H5A C5A 1_555 1_555
C6A N4A 1_555 1_555
C7A H6A 1_555 1_555
H7A C7A 1_555 1_555
H8A C7A 1_555 1_555
C8A C1 1_555 1_555
C9A N3A 1_555 1_555
C10A N1A 1_555 1_555
C11A H9A 1_555 1_555
H10A C11A 1_555 1_555
C12A C11A 1_555 1_555
H11A C12A 1_555 1_555
H12A C12A 1_555 1_555
C13A H13A 1_555 1_555
H14A C13A 1_555 1_555
C14A O1A 1_555 1_555
C15A C13A 1_555 1_555
H15A C15A 1_555 1_555
H16A C15A 1_555 1_555
C16A C10A 1_555 1_555
H17A C16A 1_555 1_555
H18A C16A 1_555 1_555
H19A C16A 1_555 1_555
C17A C11A 1_555 1_555
H20A C17A 1_555 1_555
H21A C17A 1_555 1_555
C18A C6A 1_555 1_555
H22A C18A 1_555 1_555
H23A C18A 1_555 1_555
H24A C18A 1_555 1_555
Zn2A O5 1_555 1_555
Zn2A_2 N5A 1_555 1_555
O3A Zn2A 1_555 1_555
N5A N8A 1_555 1_555
N5A_2 Zn2A 1_555 1_555
N6A H25A 1_555 1_555
C19A C21 1_555 1_555
C20A O3A 1_555 1_555
N7A Zn2A_2 1_555 1_555
N7A_2 Zn2A 1_555 1_555
N8A C27A 1_555 1_555
O4A C20A 1_555 1_555
C23A N5A 1_555 1_555
C24A C22 1_555 1_555
C25A C19A 1_555 1_555
C26A H26A 1_555 1_555
H27A C26A 1_555 1_555
C27A C24A 1_555 1_555
C28A N6A 1_555 1_555
C29A C27A 1_555 1_555
H28A C29A 1_555 1_555
H29A C29A 1_555 1_555
H30A C29A 1_555 1_555
C30A C28A 1_555 1_555
H31A C30A 1_555 1_555
H32A C30A 1_555 1_555
H33A C30A 1_555 1_555
C31A C25A 1_555 1_555
H34A C31A 1_555 1_555
H35A C31A 1_555 1_555
H36A C31A 1_555 1_555
C32A C23A 1_555 1_555
H37A C32A 1_555 1_555
H38A C32A 1_555 1_555
H39A C32A 1_555 1_555
C33A C20A 1_555 1_555
H40A C33A 1_555 1_555
H41A C33A 1_555 1_555
C34A C15A 1_555 1_555
H42A C34A 1_555 1_555
H43A C34A 1_555 1_555
C35A C26A 1_555 1_555
H44A C35A 1_555 1_555
H45A C35A 1_555 1_555
C36A C35A 1_555 1_555
H46A C36A 1_555 1_555
H47A C36A 1_555 1_555
C37A C36A 1_555 1_555
H48A C37A 1_555 1_555
H49A C37A 1_555 1_555
C38A C37A 1_555 1_555
H50A C38A 1_555 1_555
H51A C38A 1_555 1_555
C39A C38A 1_555 1_555
O5A Zn2 1_555 1_555
O6A Zn2 1_555 1_555
C40A C34A 1_555 1_555
O7A Zn1 1_555 1_555
O7_2 Zn1A 1_555 1_555
O8A C40A 1_555 1_555
H52A N8A 1_555 1_555
H53A C1 1_555 1_555
H54A C2 1_555 1_555
H55A C22 1_555 1_555
H56A C21 1_555 1_555
N3 N4 1_555 1_555
C4 C9 1_555 1_555
C7 C9 1_555 1_555
C8 C10 1_555 1_555
C12 C14 1_555 1_555
C13 C17 1_555 1_555
N6 N7 1_555 1_555
C19 C28 1_555 1_555
N7 C25 1_555 1_555
C24 C27 1_555 1_555
C26 C33 1_555 1_555
O6 Zn2A 1_555 1_555
N3A N4A 1_555 1_555
C3A C8A 1_555 1_555
C4A C6A 1_555 1_555
C4A C9A 1_555 1_555
C7A C9A 1_555 1_555
C8A C10A 1_555 1_555
C12A C14A 1_555 1_555
C13A C17A 1_555 1_555
N6A N7A 1_555 1_555
C19A C28A 1_555 1_555
N7A C25A 1_555 1_555
C23A C24A 1_555 1_555
C26A C33A 1_555 1_555
C39A O5A 1_555 1_555
C39A O6A 1_555 1_555
C40A O7A 1_555 1_555

#END
