
#######################################################################
#
#                 Cambridge Crystallographic Data Centre
#                                CCDC 
#
#######################################################################
#
# If this CIF has been generated from an entry in the Cambridge 
# Structural Database, then it will include bibliographic, chemical, 
# crystal, experimental, refinement or atomic coordinate data resulting 
# from the CCDC's data processing and validation procedures.
#
#######################################################################

data_YUCKEN
_symmetry_cell_setting           monoclinic
_symmetry_space_group_name_H-M   'I 2/a'
_symmetry_Int_Tables_number      15
_space_group_name_Hall           '-I 2ya'
loop_
_symmetry_equiv_pos_site_id
_symmetry_equiv_pos_as_xyz
1 x,y,z
2 1/2-x,y,-z
3 1/2+x,1/2+y,1/2+z
4 -x,1/2+y,1/2-z
5 -x,-y,-z
6 1/2+x,-y,z
7 1/2-x,1/2-y,1/2-z
8 x,1/2-y,1/2+z
_cell_length_a                   19.2673(7)
_cell_length_b                   8.3095(3)
_cell_length_c                   22.2571(13)
_cell_angle_alpha                90
_cell_angle_beta                 96.927(1)
_cell_angle_gamma                90
_cell_volume                     3537.39
loop_
_atom_site_label
_atom_site_type_symbol
_atom_site_fract_x
_atom_site_fract_y
_atom_site_fract_z
Zn1 Zn 0.133648(16) 0.53633(4) 0.148479(14)
O1 O 0.11735(12) 0.3527(3) 0.19789(10)
O2 O 0.05283(11) 0.1798(3) 0.13741(9)
O3 O 0.08111(10) -0.2903(2) 0.17992(9)
O4 O 0.16234(12) -0.0983(3) 0.19649(12)
N1 N 0.10198(13) 0.4949(3) 0.06028(11)
N2 N 0.07698(12) 0.3492(3) 0.04138(11)
H1 H 0.0680 0.2703 0.0657
N3 N 0.26396(12) 0.5794(3) -0.14766(11)
N4 N 0.23618(12) 0.7258(3) -0.16078(11)
H2 H 0.2588 0.8059 -0.1755
C1 C 0.10901(15) 0.5797(4) 0.00996(13)
C2 C 0.08742(14) 0.4859(4) -0.04118(12)
C3 C 0.06757(14) 0.3405(4) -0.01947(12)
C4 C 0.13689(18) 0.7477(4) 0.01353(14)
H3 H 0.1332 0.7919 0.0538
H4 H 0.1098 0.8144 -0.0171
H5 H 0.1860 0.7469 0.0062
C5 C 0.04123(17) 0.1901(4) -0.05131(14)
H6 H 0.0801 0.1345 -0.0670
H7 H 0.0056 0.2177 -0.0849
H8 H 0.0208 0.1196 -0.0229
C6 C 0.08408(15) 0.5351(4) -0.10660(13)
H9 H 0.0505 0.6252 -0.1141
H10 H 0.0656 0.4436 -0.1322
C7 C 0.16968(14) 0.7344(4) -0.14868(12)
C8 C 0.15306(14) 0.5862(4) -0.12622(13)
C9 C 0.21371(15) 0.4914(4) -0.12642(13)
C10 C 0.12778(16) 0.8841(4) -0.16028(15)
H11 H 0.1546 0.9761 -0.1424
H12 H 0.0841 0.8744 -0.1421
H13 H 0.1170 0.9005 -0.2040
C11 C 0.22599(18) 0.3213(4) -0.10810(18)
H14 H 0.2654 0.2785 -0.1271
H15 H 0.1840 0.2578 -0.1211
H16 H 0.2367 0.3150 -0.0640
C12 C 0.08238(14) 0.2229(3) 0.18730(13)
C13 C 0.07547(15) 0.1194(3) 0.24224(13)
H17 H 0.0422 0.1718 0.2667
H18 H 0.1215 0.1145 0.2674
C14 C 0.05068(15) -0.0508(3) 0.22777(13)
H19 H 0.0408 -0.1039 0.2656
H20 H 0.0064 -0.0464 0.2002
C15 C 0.10293(15) -0.1515(4) 0.19876(13)
Zn1_2 Zn 0.133648(16) -0.46367(4) 0.148479(14)
Zn1A Zn 0.366352(16) 0.53633(4) -0.148479(14)
O3_2 O 0.08111(10) 0.7097(2) 0.17992(9)
N3A N 0.23604(12) 0.5794(3) 0.14766(11)
loop_
_geom_bond_atom_site_label_1
_geom_bond_atom_site_label_2
_geom_bond_site_symmetry_1
_geom_bond_site_symmetry_2
Zn1 O1 1_555 1_555
O1 C12 1_555 1_555
O2 C12 1_555 1_555
O3 C15 1_555 1_555
O4 C15 1_555 1_555
N1 Zn1 1_555 1_555
N2 N1 1_555 1_555
H1 N2 1_555 1_555
N3 N4 1_555 1_555
N4 H2 1_555 1_555
C1 N1 1_555 1_555
C2 C1 1_555 1_555
C3 N2 1_555 1_555
C4 C1 1_555 1_555
H3 C4 1_555 1_555
H4 C4 1_555 1_555
H5 C4 1_555 1_555
C5 C3 1_555 1_555
H6 C5 1_555 1_555
H7 C5 1_555 1_555
H8 C5 1_555 1_555
C6 C2 1_555 1_555
H9 C6 1_555 1_555
H10 C6 1_555 1_555
C7 N4 1_555 1_555
C8 C6 1_555 1_555
C9 N3 1_555 1_555
C10 C7 1_555 1_555
H11 C10 1_555 1_555
H12 C10 1_555 1_555
H13 C10 1_555 1_555
C11 C9 1_555 1_555
H14 C11 1_555 1_555
H15 C11 1_555 1_555
H16 C11 1_555 1_555
C12 C13 1_555 1_555
C13 H17 1_555 1_555
H18 C13 1_555 1_555
C14 C13 1_555 1_555
H19 C14 1_555 1_555
H20 C14 1_555 1_555
C15 C14 1_555 1_555
Zn1_2 O3 1_555 1_555
Zn1A N3 1_555 1_555
O3_2 Zn1 1_555 1_555
N3A Zn1 1_555 1_555
C2 C3 1_555 1_555
C7 C8 1_555 1_555
C8 C9 1_555 1_555

#END
