
#######################################################################
#
#                 Cambridge Crystallographic Data Centre
#                                CCDC 
#
#######################################################################
#
# If this CIF has been generated from an entry in the Cambridge 
# Structural Database, then it will include bibliographic, chemical, 
# crystal, experimental, refinement or atomic coordinate data resulting 
# from the CCDC's data processing and validation procedures.
#
#######################################################################

data_YUCLOZ
_symmetry_cell_setting           triclinic
_symmetry_space_group_name_H-M   'P 1'
_symmetry_Int_Tables_number      1
_space_group_name_Hall           'P 1'
loop_
_symmetry_equiv_pos_site_id
_symmetry_equiv_pos_as_xyz
1 x,y,z
_cell_length_a                   8.8372(2)
_cell_length_b                   9.5138(2)
_cell_length_c                   18.1928(4)
_cell_angle_alpha                81.9380(10)
_cell_angle_beta                 77.4830(10)
_cell_angle_gamma                68.0910(10)
_cell_volume                     1382.39
loop_
_atom_site_label
_atom_site_type_symbol
_atom_site_fract_x
_atom_site_fract_y
_atom_site_fract_z
Na1 Na 0.3214(2) 0.8129(2) 0.00293(12)
Cr1 Cr 0.67501(12) 0.19461(11) -0.00184(6)
C1 C 0.5404(7) 0.4925(7) 0.0368(3)
C2 C 0.4822(7) 0.4903(6) -0.0390(3)
O1 O 0.4863(5) 0.6100(4) 0.0698(2)
O2 O 0.3824(5) 0.6056(5) -0.0631(2)
O3 O 0.5526(5) 0.3617(4) -0.0690(2)
O4 O 0.6415(5) 0.3652(5) 0.0586(2)
C3 C 0.4397(7) 1.0581(7) 0.0353(3)
C4 C 0.5682(7) 0.9765(6) -0.0346(3)
O5 O 0.3286(5) 1.0097(5) 0.0649(2)
O6 O 0.5541(5) 0.8666(5) -0.0573(2)
O7 O 0.6791(5) 1.0342(4) -0.0621(2)
O8 O 0.4655(5) 1.1694(4) 0.0546(2)
C5 C -0.0458(7) 0.9724(6) 0.0393(3)
C6 C 0.0139(7) 1.0544(6) -0.0373(3)
O9 O 0.0554(4) 0.8608(4) 0.0663(2)
O10 O 0.1583(5) 1.0013(4) -0.0698(2)
O11 O -0.1001(5) 1.1760(4) -0.0583(2)
O12 O -0.1978(5) 1.0346(5) 0.0668(2)
Cr1_2 Cr -0.32499(12) 1.19461(11) -0.00184(6)
Cr1_3 Cr 0.67501(12) 1.19461(11) -0.00184(6)
O7_2 O 0.6791(5) 0.0342(4) -0.0621(2)
O8_2 O 0.4655(5) 0.1694(4) 0.0546(2)
O11_2 O 0.8999(5) 0.1760(4) -0.0583(2)
O12_2 O 0.8022(5) 0.0346(5) 0.0668(2)
C7 C 0.8598(8) 0.4797(7) 0.8089(4)
H1 H 0.8591 0.4410 0.8623
H2 H 0.9388 0.5345 0.7957
C8 C 0.6886(8) 0.5910(7) 0.8012(4)
H3 H 0.6495 0.6620 0.8420
H4 H 0.6119 0.5345 0.8083
C9 C 0.7738(7) 0.5526(6) 0.6506(3)
C10 C 0.8753(7) 0.4079(6) 0.6656(3)
C11 C 0.8494(7) 0.4201(6) 0.5263(4)
C12 C 0.8618(7) 0.3768(6) 0.4557(3)
C13 C 0.9286(7) 0.2146(6) 0.3425(3)
C14 C 0.8232(7) 0.3506(6) 0.3228(4)
C15 C 0.8652(9) 0.2485(7) 0.1793(4)
H5 H 0.7968 0.1849 0.1830
H6 H 0.8818 0.2889 0.1262
C16 C 1.0301(8) 0.1486(7) 0.1972(3)
H7 H 1.1005 0.2105 0.1926
H8 H 1.0838 0.0711 0.1594
S1 S 0.9340(2) 0.32004(17) 0.75085(9)
S2 S 0.67942(18) 0.69987(15) 0.71122(9)
S3 S 0.72799(17) 0.59742(15) 0.55884(8)
S4 S 0.96029(18) 0.29181(15) 0.59065(9)
S5 S 0.98946(18) 0.19464(15) 0.43020(8)
S6 S 0.75549(17) 0.49218(15) 0.38690(8)
S7 S 0.7483(2) 0.40718(17) 0.23737(9)
S8 S 1.02080(19) 0.05299(15) 0.29065(9)
C17 C 0.4715(8) 0.8025(7) 0.2082(3)
H9 H 0.4632 0.7332 0.1747
H10 H 0.3867 0.9038 0.2002
C18 C 0.6431(8) 0.8148(6) 0.1867(4)
H11 H 0.6716 0.8271 0.1310
H12 H 0.7257 0.7192 0.2037
C19 C 0.5769(7) 0.9359(6) 0.3221(3)
C20 C 0.4860(7) 0.8486(6) 0.3518(3)
C21 C 0.5088(7) 0.9700(6) 0.4651(3)
C22 C 0.4931(7) 1.0165(6) 0.5355(4)
C23 C 0.4181(7) 1.0580(6) 0.6784(3)
C24 C 0.5132(6) 1.1438(6) 0.6480(3)
C25 C 0.5281(7) 1.1925(7) 0.7896(4)
H13 H 0.6128 1.0911 0.7974
H14 H 0.5386 1.2615 0.8226
C26 C 0.3581(8) 1.1806(6) 0.8135(4)
H15 H 0.2742 1.2780 0.7991
H16 H 0.3351 1.1646 0.8692
S9 S 0.42845(17) 0.73238(16) 0.30612(8)
S10 S 0.65621(19) 0.97240(16) 0.22729(8)
S11 S 0.62209(17) 1.03058(16) 0.38555(8)
S12 S 0.41663(17) 0.84761(16) 0.44935(8)
S13 S 0.37832(17) 0.95895(16) 0.61510(8)
S14 S 0.58715(17) 1.13864(16) 0.55068(8)
S15 S 0.57108(17) 1.26090(15) 0.69276(8)
S16 S 0.33517(19) 1.02849(16) 0.77241(8)
C27 C 0.1482(8) 0.5238(7) 0.1880(4)
H17 H 0.0716 0.4668 0.1970
H18 H 0.1546 0.5654 0.1348
C28 C 0.3194(8) 0.4140(7) 0.1990(4)
H19 H 0.3932 0.4725 0.1952
H20 H 0.3651 0.3441 0.1577
C29 C 0.2267(7) 0.4490(6) 0.3496(3)
C30 C 0.1220(7) 0.5916(6) 0.3341(3)
C31 C 0.1486(7) 0.5829(6) 0.4739(3)
C32 C 0.1369(7) 0.6264(6) 0.5437(4)
C33 C 0.0728(7) 0.7890(6) 0.6565(3)
C34 C 0.1818(7) 0.6512(6) 0.6774(3)
C35 C 0.1349(8) 0.7462(6) 0.8235(4)
H21 H 0.1135 0.6981 0.8747
H22 H 0.1995 0.8103 0.8263
C36 C -0.0304(8) 0.8490(7) 0.8029(4)
H23 H -0.0872 0.9256 0.8410
H24 H -0.1004 0.7875 0.8051
S17 S 0.06290(19) 0.67970(17) 0.24878(9)
S18 S 0.32226(19) 0.30257(16) 0.28824(9)
S19 S 0.27171(18) 0.40431(15) 0.44110(8)
S20 S 0.03464(17) 0.70988(15) 0.40957(8)
S21 S 0.00736(18) 0.80728(15) 0.57088(8)
S22 S 0.24486(17) 0.50856(15) 0.61280(8)
S23 S 0.26302(19) 0.59644(17) 0.76015(9)
S24 S -0.01347(18) 0.94631(15) 0.71032(9)
C37 C 0.9297(18) 0.5658(15) 0.0149(8)
H25 H 0.8489 0.5456 0.0581
H26 H 0.9635 0.6463 0.0276
C38 C 1.0786(17) 0.4234(17) -0.0011(9)
H27 H 1.0452 0.3475 -0.0177
H28 H 1.1257 0.3834 0.0448
H29 H 1.1619 0.4468 -0.0409
O13 O 0.8562(7) 0.6132(6) -0.0521(3)
H30 H 0.7784 0.6972 -0.0462
C39? C 1.065(9) 0.442(8) -0.016(3)
H31? H 1.0312 0.3638 -0.0307
H32? H 1.1497 0.4622 -0.0570
C40? C 0.917(6) 0.587(6) 0.001(3)
H33? H 0.8719 0.5868 0.0548
H34? H 0.8315 0.5920 -0.0274
H35? H 0.9512 0.6748 -0.0151
O14? O 1.130(3) 0.393(3) 0.0533(17)
H36? H 1.2277 0.3320 0.0440
loop_
_geom_bond_atom_site_label_1
_geom_bond_atom_site_label_2
_geom_bond_site_symmetry_1
_geom_bond_site_symmetry_2
Na1 O1 1_555 1_555
Cr1 O3 1_555 1_555
C1 C2 1_555 1_555
C2 O2 1_555 1_555
O1 C1 1_555 1_555
O2 Na1 1_555 1_555
O3 C2 1_555 1_555
O4 Cr1 1_555 1_555
C3 C4 1_555 1_555
C4 O6 1_555 1_555
O5 Na1 1_555 1_555
O6 Na1 1_555 1_555
O7 C4 1_555 1_555
O8 C3 1_555 1_555
C5 C6 1_555 1_555
C6 O10 1_555 1_555
O9 Na1 1_555 1_555
O10 Na1 1_555 1_555
O11 C6 1_555 1_555
O12 C5 1_555 1_555
C7 H1 1_555 1_555
H2 C7 1_555 1_555
C8 C7 1_555 1_555
H3 C8 1_555 1_555
H4 C8 1_555 1_555
C9 C10 1_555 1_555
C10 S1 1_555 1_555
C11 C12 1_555 1_555
C12 S5 1_555 1_555
C13 C14 1_555 1_555
C14 S6 1_555 1_555
C15 H5 1_555 1_555
H6 C15 1_555 1_555
C16 C15 1_555 1_555
H7 C16 1_555 1_555
H8 C16 1_555 1_555
S1 C7 1_555 1_555
S2 C8 1_555 1_555
S3 C9 1_555 1_555
S4 C10 1_555 1_555
S5 C13 1_555 1_555
S6 C12 1_555 1_555
S7 C14 1_555 1_555
S8 C13 1_555 1_555
C17 H9 1_555 1_555
H10 C17 1_555 1_555
C18 C17 1_555 1_555
H11 C18 1_555 1_555
H12 C18 1_555 1_555
C19 C20 1_555 1_555
C20 S9 1_555 1_555
C21 C22 1_555 1_555
C22 S13 1_555 1_555
C23 C24 1_555 1_555
C24 S14 1_555 1_555
C25 H13 1_555 1_555
H14 C25 1_555 1_555
C26 C25 1_555 1_555
H15 C26 1_555 1_555
H16 C26 1_555 1_555
S9 C17 1_555 1_555
S10 C18 1_555 1_555
S11 C19 1_555 1_555
S12 C20 1_555 1_555
S13 C23 1_555 1_555
S14 C22 1_555 1_555
S15 C24 1_555 1_555
S16 C23 1_555 1_555
C27 H17 1_555 1_555
H18 C27 1_555 1_555
C28 C27 1_555 1_555
H19 C28 1_555 1_555
H20 C28 1_555 1_555
C29 C30 1_555 1_555
C30 S17 1_555 1_555
C31 C32 1_555 1_555
C32 S21 1_555 1_555
C33 C34 1_555 1_555
C34 S22 1_555 1_555
C35 H21 1_555 1_555
H22 C35 1_555 1_555
C36 C35 1_555 1_555
H23 C36 1_555 1_555
H24 C36 1_555 1_555
S17 C27 1_555 1_555
S18 C28 1_555 1_555
S19 C29 1_555 1_555
S20 C30 1_555 1_555
S21 C33 1_555 1_555
S22 C32 1_555 1_555
S23 C34 1_555 1_555
S24 C33 1_555 1_555
C37 H25 1_555 1_555
H26 C37 1_555 1_555
C38 C37 1_555 1_555
H27 C38 1_555 1_555
H28 C38 1_555 1_555
H29 C38 1_555 1_555
O13 C37 1_555 1_555
H30 O13 1_555 1_555
Cr1_2 O11 1_555 1_555
Cr1_3 O7 1_555 1_555
O7_2 Cr1 1_555 1_555
O8_2 Cr1 1_555 1_555
O11_2 Cr1 1_555 1_555
O12_2 Cr1 1_555 1_555
C1 O4 1_555 1_555
C3 O5 1_555 1_555
O8 Cr1_3 1_555 1_555
C5 O9 1_555 1_555
O12 Cr1_2 1_555 1_555
C9 S2 1_555 1_555
C11 S3 1_555 1_555
C11 S4 1_555 1_555
C15 S7 1_555 1_555
C16 S8 1_555 1_555
C19 S10 1_555 1_555
C21 S11 1_555 1_555
C21 S12 1_555 1_555
C25 S15 1_555 1_555
C26 S16 1_555 1_555
C29 S18 1_555 1_555
C31 S19 1_555 1_555
C31 S20 1_555 1_555
C35 S23 1_555 1_555
C36 S24 1_555 1_555

#END
