
#######################################################################
#
#                 Cambridge Crystallographic Data Centre
#                                CCDC 
#
#######################################################################
#
# If this CIF has been generated from an entry in the Cambridge 
# Structural Database, then it will include bibliographic, chemical, 
# crystal, experimental, refinement or atomic coordinate data resulting 
# from the CCDC's data processing and validation procedures.
#
#######################################################################

data_YUCRUL
_symmetry_cell_setting           monoclinic
_symmetry_space_group_name_H-M   'C 2/c'
_symmetry_Int_Tables_number      15
_space_group_name_Hall           '-C 2yn'
loop_
_symmetry_equiv_pos_site_id
_symmetry_equiv_pos_as_xyz
1 x,y,z
2 -x,y,1/2-z
3 1/2+x,1/2+y,z
4 1/2-x,1/2+y,1/2-z
5 -x,-y,-z
6 x,-y,1/2+z
7 1/2-x,1/2-y,-z
8 1/2+x,1/2-y,1/2+z
_cell_length_a                   16.0760(4)
_cell_length_b                   30.5905(3)
_cell_length_c                   19.2993(5)
_cell_angle_alpha                90
_cell_angle_beta                 114.138(3)
_cell_angle_gamma                90
_cell_volume                     8661.02
loop_
_atom_site_label
_atom_site_type_symbol
_atom_site_fract_x
_atom_site_fract_y
_atom_site_fract_z
Cu1 Cu 0.34046(7) 0.17284(3) 0.29763(6)
Cl1 Cl 0.38783(14) 0.10351(6) 0.31960(18)
S1 S 0.50694(11) 0.21908(5) 0.30527(10)
N1 N 0.2864(4) 0.23710(17) 0.2727(3)
N2 N 0.3793(4) 0.19466(16) 0.4031(4)
N3 N 0.2883(4) 0.1706(2) 0.1860(4)
Cl2 Cl 0.18184(14) 0.14616(6) 0.32220(17)
Cu2 Cu 0.20573(7) 0.07682(3) 0.29773(7)
C1 C 0.4452(5) 0.26863(18) 0.3105(4)
C2 C 0.3464(5) 0.26909(18) 0.2586(4)
C3 C 0.2668(5) 0.2491(2) 0.3386(4)
C4 C 0.2045(5) 0.2292(3) 0.2051(5)
C5 C 0.4363(7) 0.1838(4) 0.4748(5)
N4 N 0.3403(5) 0.23349(18) 0.4063(3)
C6 C 0.3009(6) 0.1494(3) 0.1304(5)
N5 N 0.2280(4) 0.2032(2) 0.1543(4)
S2 S 0.04640(12) 0.03129(5) 0.30538(11)
N6 N 0.2342(4) 0.01381(17) 0.2727(3)
N7 N 0.2684(5) 0.0548(2) 0.4019(4)
N8 N 0.1489(4) 0.08184(17) 0.1864(4)
H1 H 0.4511 0.2721 0.3633
H2 H 0.4748 0.2942 0.2986
H3 H 0.3225 0.2987 0.2606
H4 H 0.3412 0.2646 0.2062
H5 H 0.2613 0.2812 0.3411
H6 H 0.2087 0.2357 0.3338
H7 H 0.1590 0.2137 0.2183
H8 H 0.1778 0.2573 0.1806
C7 C 0.4291(7) 0.2157(4) 0.5240(5)
C8 C 0.4910(9) 0.1458(4) 0.4934(7)
C9 C 0.3666(7) 0.2482(3) 0.4787(5)
C10 C 0.2481(8) 0.1711(4) 0.0615(6)
C11 C 0.3639(8) 0.1127(3) 0.1379(6)
C12 C 0.2033(9) 0.2063(5) 0.0801(7)
C13 C 0.1136(5) -0.0166(2) 0.3116(4)
C14 C 0.1585(5) -0.01869(18) 0.2560(4)
C15 C 0.3189(5) -0.0001(2) 0.3348(4)
C16 C 0.2504(5) 0.0190(2) 0.2011(4)
C17 C 0.2880(6) 0.0649(3) 0.4744(5)
N9 N 0.3152(4) 0.0166(2) 0.4053(4)
C18 C 0.0794(7) 0.1002(3) 0.1285(6)
N10 N 0.1740(5) 0.04665(19) 0.1528(4)
H9 H 0.4602 0.2158 0.5778
H10 H 0.5126 0.1400 0.4536
H11 H 0.4549 0.1209 0.4975
H12 H 0.5434 0.1502 0.5420
C19 C 0.3325(8) 0.2896(3) 0.4977(5)
H13 H 0.2436 0.1636 0.0123
H14 H 0.3479 0.0991 0.0882
H15 H 0.3588 0.0911 0.1734
H16 H 0.4266 0.1237 0.1571
C20 C 0.1366(14) 0.2367(6) 0.0321(6)
H17 H 0.1619 -0.0184 0.3638
H18 H 0.0740 -0.0426 0.3036
H19 H 0.1831 -0.0485 0.2571
H20 H 0.1117 -0.0134 0.2040
H21 H 0.3723 0.0120 0.3283
H22 H 0.3236 -0.0324 0.3364
H23 H 0.3096 0.0334 0.2121
H24 H 0.2492 -0.0097 0.1769
C21 C 0.3448(8) 0.0315(4) 0.5224(7)
C22 C 0.2507(9) 0.1038(4) 0.4992(7)
C23 C 0.3604(6) 0.0034(3) 0.4775(6)
C24 C 0.0666(8) 0.0800(4) 0.0623(7)
C25 C 0.0280(6) 0.1388(3) 0.1455(7)
C26 C 0.1251(8) 0.0465(4) 0.0776(5)
H25 H 0.3488 0.3141 0.4729
H26 H 0.3602 0.2939 0.5528
H27 H 0.2661 0.2882 0.4799
H28 H 0.0763 0.2287 0.0293
H29 H 0.1358 0.2360 -0.0189
H30 H 0.1521 0.2663 0.0532
H31 H 0.3668 0.0299 0.5761
H32 H 0.2635 0.1304 0.4770
H33 H 0.2794 0.1060 0.5547
H34 H 0.1846 0.1005 0.4823
C27 C 0.4163(6) -0.0397(3) 0.4935(6)
H35 H 0.0234 0.0883 0.0133
H36 H 0.0402 0.1657 0.1237
H37 H 0.0490 0.1422 0.2005
H38 H -0.0376 0.1328 0.1229
C28 C 0.1350(11) 0.0102(5) 0.0245(7)
H39 H 0.3746 -0.0647 0.4775
H40 H 0.4548 -0.0420 0.5480
H41 H 0.4548 -0.0396 0.4652
H42 H 0.1960 -0.0028 0.0482
H43 H 0.1265 0.0231 -0.0244
H44 H 0.0889 -0.0125 0.0164
S1A S 0.49306(11) 0.21908(5) 0.19473(10)
C1A C 0.5548(5) 0.26863(18) 0.1895(4)
Cu1A Cu 0.65954(7) 0.17284(3) 0.20237(6)
S2A S -0.04640(12) 0.03129(5) 0.19462(11)
C2A C 0.6536(5) 0.26909(18) 0.2414(4)
H1A H 0.5489 0.2721 0.1367
H2A H 0.5252 0.2942 0.2014
N1A N 0.7136(4) 0.23710(17) 0.2273(3)
N2A N 0.6207(4) 0.19466(16) 0.0969(4)
N3A N 0.7117(4) 0.1706(2) 0.3140(4)
Cl1A Cl 0.61217(14) 0.10351(6) 0.18040(18)
Cl2A Cl 0.81816(14) 0.14616(6) 0.17780(17)
C13A C -0.1136(5) -0.0166(2) 0.1884(4)
Cu2A Cu -0.20573(7) 0.07682(3) 0.20227(7)
H3A H 0.6775 0.2987 0.2394
H4A H 0.6588 0.2646 0.2938
C3A C 0.7332(5) 0.2491(2) 0.1614(4)
C4A C 0.7955(5) 0.2292(3) 0.2949(5)
C5A C 0.5637(7) 0.1838(4) 0.0252(5)
N4A N 0.6597(5) 0.23349(18) 0.0937(3)
C6A C 0.6991(6) 0.1494(3) 0.3696(5)
N5A N 0.7720(4) 0.2032(2) 0.3457(4)
C14A C -0.1585(5) -0.01869(18) 0.2440(4)
H17A H -0.1619 -0.0184 0.1362
H18A H -0.0740 -0.0426 0.1964
N6A N -0.2342(4) 0.01381(17) 0.2273(3)
N7A N -0.2684(5) 0.0548(2) 0.0981(4)
N8A N -0.1489(4) 0.08184(17) 0.3136(4)
Cl1A_2 Cl -0.38783(14) 0.10351(6) 0.18040(18)
Cl2A_2 Cl -0.18184(14) 0.14616(6) 0.17780(17)
H5A H 0.7387 0.2812 0.1589
H6A H 0.7913 0.2357 0.1662
H7A H 0.8410 0.2137 0.2817
H8A H 0.8222 0.2573 0.3194
C7A C 0.5709(7) 0.2157(4) -0.0240(5)
C8A C 0.5090(9) 0.1458(4) 0.0066(7)
C9A C 0.6334(7) 0.2482(3) 0.0213(5)
C10A C 0.7519(8) 0.1711(4) 0.4385(6)
C11A C 0.6361(8) 0.1127(3) 0.3621(6)
C12A C 0.7967(9) 0.2063(5) 0.4199(7)
H19A H -0.1831 -0.0485 0.2429
H20A H -0.1117 -0.0134 0.2960
C15A C -0.3189(5) -0.0001(2) 0.1652(4)
C16A C -0.2504(5) 0.0190(2) 0.2989(4)
C17A C -0.2880(6) 0.0649(3) 0.0256(5)
N9A N -0.3152(4) 0.0166(2) 0.0947(4)
C18A C -0.0794(7) 0.1002(3) 0.3715(6)
N10A N -0.1740(5) 0.04665(19) 0.3472(4)
Cu1A_2 Cu -0.34046(7) 0.17284(3) 0.20237(6)
H9A H 0.5398 0.2158 -0.0778
H10A H 0.4874 0.1400 0.0464
H11A H 0.5451 0.1209 0.0025
H12A H 0.4566 0.1502 -0.0420
C19A C 0.6675(8) 0.2896(3) 0.0023(5)
H13A H 0.7564 0.1636 0.4877
H14A H 0.6521 0.0991 0.4118
H15A H 0.6412 0.0911 0.3266
H16A H 0.5734 0.1237 0.3429
C20A C 0.8634(14) 0.2367(6) 0.4679(6)
H21A H -0.3723 0.0120 0.1717
H22A H -0.3236 -0.0324 0.1636
H23A H -0.3096 0.0334 0.2879
H24A H -0.2492 -0.0097 0.3231
C21A C -0.3448(8) 0.0315(4) -0.0224(7)
C22A C -0.2507(9) 0.1038(4) 0.0008(7)
C23A C -0.3604(6) 0.0034(3) 0.0225(6)
C24A C -0.0666(8) 0.0800(4) 0.4377(7)
C25A C -0.0280(6) 0.1388(3) 0.3545(7)
C26A C -0.1251(8) 0.0465(4) 0.4224(5)
H25A H 0.6512 0.3141 0.0271
H26A H 0.6398 0.2939 -0.0528
H27A H 0.7339 0.2882 0.0201
H28A H 0.9237 0.2287 0.4707
H29A H 0.8642 0.2360 0.5189
H30A H 0.8479 0.2663 0.4468
H31A H -0.3668 0.0299 -0.0761
H32A H -0.2635 0.1304 0.0230
H33A H -0.2794 0.1060 -0.0547
H34A H -0.1846 0.1005 0.0177
C27A C -0.4163(6) -0.0397(3) 0.0065(6)
H35A H -0.0234 0.0883 0.4867
H36A H -0.0402 0.1657 0.3763
H37A H -0.0490 0.1422 0.2995
H38A H 0.0376 0.1328 0.3771
C28A C -0.1350(11) 0.0102(5) 0.4755(7)
H39A H -0.3746 -0.0647 0.0225
H40A H -0.4548 -0.0420 -0.0480
H41A H -0.4548 -0.0396 0.0348
H42A H -0.1960 -0.0028 0.4518
H43A H -0.1265 0.0231 0.5244
H44A H -0.0889 -0.0125 0.4836
B1 B 0.3965(7) 0.3889(3) 0.3536(6)
F1 F 0.3246(8) 0.4126(4) 0.3579(8)
F2 F 0.4211(8) 0.3552(3) 0.4054(8)
F3 F 0.4708(8) 0.4169(3) 0.3699(7)
F4 F 0.3703(11) 0.3725(5) 0.2805(7)
N11 N 0.135(2) 0.3704(7) 0.2133(13)
C29 C 0.2517(18) 0.3945(9) 0.3301(15)
C30 C 0.1689(14) 0.3761(6) 0.2806(12)
B2 B 0.3030(14) 0.3618(6) 0.1405(11)
F5 F 0.3506(12) 0.3282(5) 0.1232(9)
F6 F 0.3069(10) 0.3919(4) 0.0911(7)
F7 F 0.2202(13) 0.3465(7) 0.1402(13)
F8 F 0.3594(14) 0.3719(5) 0.2154(9)
C31? C 0.1734(14) 0.3212(6) 0.1265(11)
C32? C 0.1585(18) 0.3516(7) 0.1711(13)
B3? B 0.0077(7) 0.2634(2) 0.2580(6)
F9? F 0.0459(9) 0.2287(3) 0.3049(7)
F10? F 0.0756(7) 0.2913(3) 0.2632(8)
F11? F -0.0524(8) 0.2835(4) 0.2803(7)
F12? F -0.0352(11) 0.2491(4) 0.1854(6)
B4? B -0.0026(6) 0.4777(3) 0.2311(5)
F13? F 0.0031(11) 0.4449(4) 0.1844(7)
F14? F -0.0246(9) 0.5156(3) 0.1906(6)
F15? F 0.0804(7) 0.4819(5) 0.2897(6)
F16? F -0.0670(7) 0.4660(3) 0.2558(8)
B5? B 0.4309(16) 0.3839(7) 0.3665(12)
F17? F 0.3896(15) 0.4176(6) 0.3903(11)
F18? F 0.4476(15) 0.3479(6) 0.4098(14)
F19? F 0.5160(14) 0.4003(7) 0.3753(11)
F20? F 0.3974(19) 0.3749(8) 0.2886(10)
B6? B 0.2969(14) 0.3679(6) 0.1354(12)
F21? F 0.3768(10) 0.3488(5) 0.1363(9)
F22? F 0.2730(12) 0.4042(4) 0.0909(8)
F23? F 0.2322(14) 0.3337(6) 0.1191(13)
F24? F 0.3109(19) 0.3810(8) 0.2089(11)
loop_
_geom_bond_atom_site_label_1
_geom_bond_atom_site_label_2
_geom_bond_site_symmetry_1
_geom_bond_site_symmetry_2
Cu1 Cl1 1_555 1_555
Cl1 Cu2 1_555 1_555
S1 Cu1 1_555 1_555
N1 Cu1 1_555 1_555
N2 Cu1 1_555 1_555
N3 Cu1 1_555 1_555
Cl2 Cu1 1_555 1_555
Cu2 Cl2 1_555 1_555
C1 S1 1_555 1_555
C2 N1 1_555 1_555
C3 N1 1_555 1_555
C4 N1 1_555 1_555
C5 N2 1_555 1_555
N4 N2 1_555 1_555
C6 N3 1_555 1_555
N5 N3 1_555 1_555
S2 Cu2 1_555 1_555
N6 Cu2 1_555 1_555
N7 Cu2 1_555 1_555
N8 Cu2 1_555 1_555
H1 C1 1_555 1_555
H2 C1 1_555 1_555
H3 C2 1_555 1_555
H4 C2 1_555 1_555
H5 C3 1_555 1_555
H6 C3 1_555 1_555
H7 C4 1_555 1_555
H8 C4 1_555 1_555
C7 C5 1_555 1_555
C8 C5 1_555 1_555
C9 N4 1_555 1_555
C10 C6 1_555 1_555
C11 C6 1_555 1_555
C12 N5 1_555 1_555
C13 S2 1_555 1_555
C14 N6 1_555 1_555
C15 N6 1_555 1_555
C16 N6 1_555 1_555
C17 N7 1_555 1_555
N9 N7 1_555 1_555
C18 N8 1_555 1_555
N10 N8 1_555 1_555
H9 C7 1_555 1_555
H10 C8 1_555 1_555
H11 C8 1_555 1_555
H12 C8 1_555 1_555
C19 C9 1_555 1_555
H13 C10 1_555 1_555
H14 C11 1_555 1_555
H15 C11 1_555 1_555
H16 C11 1_555 1_555
C20 C12 1_555 1_555
H17 C13 1_555 1_555
H18 C13 1_555 1_555
H19 C14 1_555 1_555
H20 C14 1_555 1_555
H21 C15 1_555 1_555
H22 C15 1_555 1_555
H23 C16 1_555 1_555
H24 C16 1_555 1_555
C21 C17 1_555 1_555
C22 C17 1_555 1_555
C23 N9 1_555 1_555
C24 C18 1_555 1_555
C25 C18 1_555 1_555
C26 N10 1_555 1_555
H25 C19 1_555 1_555
H26 C19 1_555 1_555
H27 C19 1_555 1_555
H28 C20 1_555 1_555
H29 C20 1_555 1_555
H30 C20 1_555 1_555
H31 C21 1_555 1_555
H32 C22 1_555 1_555
H33 C22 1_555 1_555
H34 C22 1_555 1_555
C27 C23 1_555 1_555
H35 C24 1_555 1_555
H36 C25 1_555 1_555
H37 C25 1_555 1_555
H38 C25 1_555 1_555
C28 C26 1_555 1_555
H39 C27 1_555 1_555
H40 C27 1_555 1_555
H41 C27 1_555 1_555
H42 C28 1_555 1_555
H43 C28 1_555 1_555
H44 C28 1_555 1_555
B1 F1 1_555 1_555
F2 B1 1_555 1_555
F3 B1 1_555 1_555
F4 B1 1_555 1_555
N11 C30 1_555 1_555
C29 C30 1_555 1_555
B2 F5 1_555 1_555
F6 B2 1_555 1_555
F7 B2 1_555 1_555
F8 B2 1_555 1_555
S1A S1 1_555 1_555
C1A S1A 1_555 1_555
Cu1A S1A 1_555 1_555
S2A S2 1_555 1_555
C2A C1A 1_555 1_555
H1A C1A 1_555 1_555
H2A C1A 1_555 1_555
N1A Cu1A 1_555 1_555
N2A Cu1A 1_555 1_555
N3A Cu1A 1_555 1_555
Cl1A Cu1A 1_555 1_555
Cl2A Cu1A 1_555 1_555
C13A S2A 1_555 1_555
Cu2A S2A 1_555 1_555
H3A C2A 1_555 1_555
H4A C2A 1_555 1_555
C3A N1A 1_555 1_555
C4A N1A 1_555 1_555
C5A N2A 1_555 1_555
N4A N2A 1_555 1_555
C6A N3A 1_555 1_555
N5A N3A 1_555 1_555
C14A C13A 1_555 1_555
H17A C13A 1_555 1_555
H18A C13A 1_555 1_555
N6A Cu2A 1_555 1_555
N7A Cu2A 1_555 1_555
N8A Cu2A 1_555 1_555
Cl1A_2 Cu2A 1_555 1_555
Cl2A_2 Cu2A 1_555 1_555
H5A C3A 1_555 1_555
H6A C3A 1_555 1_555
H7A C4A 1_555 1_555
H8A C4A 1_555 1_555
C7A C5A 1_555 1_555
C8A C5A 1_555 1_555
C9A N4A 1_555 1_555
C10A C6A 1_555 1_555
C11A C6A 1_555 1_555
C12A N5A 1_555 1_555
H19A C14A 1_555 1_555
H20A C14A 1_555 1_555
C15A N6A 1_555 1_555
C16A N6A 1_555 1_555
C17A N7A 1_555 1_555
N9A N7A 1_555 1_555
C18A N8A 1_555 1_555
N10A N8A 1_555 1_555
Cu1A_2 Cl1A_2 1_555 1_555
H9A C7A 1_555 1_555
H10A C8A 1_555 1_555
H11A C8A 1_555 1_555
H12A C8A 1_555 1_555
C19A C9A 1_555 1_555
H13A C10A 1_555 1_555
H14A C11A 1_555 1_555
H15A C11A 1_555 1_555
H16A C11A 1_555 1_555
C20A C12A 1_555 1_555
H21A C15A 1_555 1_555
H22A C15A 1_555 1_555
H23A C16A 1_555 1_555
H24A C16A 1_555 1_555
C21A C17A 1_555 1_555
C22A C17A 1_555 1_555
C23A N9A 1_555 1_555
C24A C18A 1_555 1_555
C25A C18A 1_555 1_555
C26A N10A 1_555 1_555
H25A C19A 1_555 1_555
H26A C19A 1_555 1_555
H27A C19A 1_555 1_555
H28A C20A 1_555 1_555
H29A C20A 1_555 1_555
H30A C20A 1_555 1_555
H31A C21A 1_555 1_555
H32A C22A 1_555 1_555
H33A C22A 1_555 1_555
H34A C22A 1_555 1_555
C27A C23A 1_555 1_555
H35A C24A 1_555 1_555
H36A C25A 1_555 1_555
H37A C25A 1_555 1_555
H38A C25A 1_555 1_555
C28A C26A 1_555 1_555
H39A C27A 1_555 1_555
H40A C27A 1_555 1_555
H41A C27A 1_555 1_555
H42A C28A 1_555 1_555
H43A C28A 1_555 1_555
H44A C28A 1_555 1_555
C1 C2 1_555 1_555
C3 N4 1_555 1_555
C4 N5 1_555 1_555
C7 C9 1_555 1_555
C10 C12 1_555 1_555
C13 C14 1_555 1_555
C15 N9 1_555 1_555
C16 N10 1_555 1_555
C21 C23 1_555 1_555
C24 C26 1_555 1_555
C2A N1A 1_555 1_555
C3A N4A 1_555 1_555
C4A N5A 1_555 1_555
C14A N6A 1_555 1_555
Cl2A_2 Cu1A_2 1_555 1_555
C7A C9A 1_555 1_555
C10A C12A 1_555 1_555
C15A N9A 1_555 1_555
C16A N10A 1_555 1_555
C21A C23A 1_555 1_555
C24A C26A 1_555 1_555

#END
