
#######################################################################
#
#                 Cambridge Crystallographic Data Centre
#                                CCDC 
#
#######################################################################
#
# If this CIF has been generated from an entry in the Cambridge 
# Structural Database, then it will include bibliographic, chemical, 
# crystal, experimental, refinement or atomic coordinate data resulting 
# from the CCDC's data processing and validation procedures.
#
#######################################################################

data_YUCXOK
_symmetry_cell_setting           monoclinic
_symmetry_space_group_name_H-M   'P 21/c'
_symmetry_Int_Tables_number      14
_space_group_name_Hall           '-P 2ybc'
loop_
_symmetry_equiv_pos_site_id
_symmetry_equiv_pos_as_xyz
1 x,y,z
2 -x,1/2+y,1/2-z
3 -x,-y,-z
4 x,1/2-y,1/2+z
_cell_length_a                   8.9067(13)
_cell_length_b                   17.367(3)
_cell_length_c                   12.5804(18)
_cell_angle_alpha                90
_cell_angle_beta                 97.176(2)
_cell_angle_gamma                90
_cell_volume                     1930.73
loop_
_atom_site_label
_atom_site_type_symbol
_atom_site_fract_x
_atom_site_fract_y
_atom_site_fract_z
Mn1 Mn 0.86083(5) 0.64881(3) 0.57766(4)
O1 O 0.7990(3) 0.77011(13) 0.48474(19)
O2 O 0.9562(3) 0.76311(12) 0.63126(18)
O3 O 1.0696(2) 1.00516(13) 0.85451(17)
O4 O 1.0246(3) 1.11522(13) 0.77017(18)
O5 O 0.6696(3) 1.04731(14) 0.43566(19)
N1 N 0.6456(3) 0.66681(15) 0.6502(2)
N2 N 0.6681(3) 0.60012(15) 0.4629(2)
C1 C 0.8656(4) 0.88801(18) 0.5761(3)
C2 C 0.9443(3) 0.92408(18) 0.6647(2)
H1 H 1.0049 0.8952 0.7155
C3 C 0.9327(3) 1.00281(18) 0.6774(2)
C4 C 0.8419(4) 1.04587(19) 0.6018(3)
H2 H 0.8343 1.0989 0.6102
C5 C 0.7631(4) 1.0102(2) 0.5143(3)
C6 C 0.7755(4) 0.93092(18) 0.5017(3)
H3 H 0.7225 0.9068 0.4425
C7 C 0.8744(4) 0.80229(19) 0.5621(3)
C8 C 1.0148(3) 1.0427(2) 0.7738(3)
C9 C 0.6513(6) 1.1283(2) 0.4467(3)
H4 H 0.6116 1.1389 0.5127
H5 H 0.5824 1.1473 0.3878
H6 H 0.7475 1.1532 0.4471
C10 C 0.6399(4) 0.7003(2) 0.7453(3)
H7 H 0.7309 0.7132 0.7860
C11 C 0.5089(4) 0.7168(2) 0.7862(3)
H8 H 0.5107 0.7407 0.8526
C12 C 0.3748(4) 0.6973(2) 0.7273(3)
H9 H 0.2835 0.7073 0.7533
C13 C 0.3765(4) 0.6624(2) 0.6285(3)
H10 H 0.2862 0.6492 0.5872
C14 C 0.5131(3) 0.64735(19) 0.5918(2)
C15 C 0.5263(3) 0.60952(18) 0.4878(2)
C16 C 0.4026(4) 0.5843(2) 0.4195(3)
H11 H 0.3056 0.5903 0.4383
C17 C 0.4231(4) 0.5504(2) 0.3238(3)
H12 H 0.3403 0.5339 0.2769
C18 C 0.5661(4) 0.5414(2) 0.2983(3)
H13 H 0.5829 0.5187 0.2338
C19 C 0.6858(4) 0.5666(2) 0.3703(3)
H14 H 0.7836 0.5598 0.3531
O6 O 1.0261(3) 0.62274(13) 0.47247(18)
H15 H 1.037(4) 0.6603(12) 0.432(2)
H16 H 1.033(4) 0.5804(11) 0.440(2)
Mn1A Mn 1.13917(5) 1.14881(3) 0.92234(4)
O4A O 0.9754(3) 0.61522(13) 0.72983(18)
O7 O 0.0671(3) 0.74055(16) 0.3430(2)
H17 H 0.041(4) 0.734(2) 0.2772(16)
H18 H 0.016(4) 0.7774(18) 0.364(3)
loop_
_geom_bond_atom_site_label_1
_geom_bond_atom_site_label_2
_geom_bond_site_symmetry_1
_geom_bond_site_symmetry_2
Mn1 O1 1_555 1_555
O1 C7 1_555 1_555
O2 Mn1 1_555 1_555
O3 C8 1_555 1_555
O4 C8 1_555 1_555
O5 C5 1_555 1_555
N1 Mn1 1_555 1_555
N2 Mn1 1_555 1_555
C1 C2 1_555 1_555
C2 H1 1_555 1_555
C3 C2 1_555 1_555
C4 C3 1_555 1_555
H2 C4 1_555 1_555
C5 C4 1_555 1_555
C6 C1 1_555 1_555
H3 C6 1_555 1_555
C7 O2 1_555 1_555
C8 C3 1_555 1_555
C9 O5 1_555 1_555
H4 C9 1_555 1_555
H5 C9 1_555 1_555
H6 C9 1_555 1_555
C10 N1 1_555 1_555
H7 C10 1_555 1_555
C11 C10 1_555 1_555
H8 C11 1_555 1_555
C12 C11 1_555 1_555
H9 C12 1_555 1_555
C13 C12 1_555 1_555
H10 C13 1_555 1_555
C14 N1 1_555 1_555
C15 N2 1_555 1_555
C16 C15 1_555 1_555
H11 C16 1_555 1_555
C17 C16 1_555 1_555
H12 C17 1_555 1_555
C18 C17 1_555 1_555
H13 C18 1_555 1_555
C19 N2 1_555 1_555
H14 C19 1_555 1_555
O6 Mn1 1_555 1_555
H15 O6 1_555 1_555
H16 O6 1_555 1_555
O7 H17 1_555 1_555
H18 O7 1_555 1_555
Mn1A O4 1_555 1_555
O4A Mn1 1_555 1_555
C1 C7 1_555 1_555
C5 C6 1_555 1_555
C13 C14 1_555 1_555
C14 C15 1_555 1_555
C18 C19 1_555 1_555

#END
