
#######################################################################
#
#                 Cambridge Crystallographic Data Centre
#                                CCDC 
#
#######################################################################
#
# If this CIF has been generated from an entry in the Cambridge 
# Structural Database, then it will include bibliographic, chemical, 
# crystal, experimental, refinement or atomic coordinate data resulting 
# from the CCDC's data processing and validation procedures.
#
#######################################################################

data_YUDCOQ01
_symmetry_cell_setting           triclinic
_symmetry_space_group_name_H-M   'P -1'
_symmetry_Int_Tables_number      2
_space_group_name_Hall           '-P 1'
loop_
_symmetry_equiv_pos_site_id
_symmetry_equiv_pos_as_xyz
1 x,y,z
2 -x,-y,-z
_cell_length_a                   6.4529(13)
_cell_length_b                   8.1694(16)
_cell_length_c                   8.6160(17)
_cell_angle_alpha                92.79(3)
_cell_angle_beta                 110.30(3)
_cell_angle_gamma                108.92(3)
_cell_volume                     396.273
loop_
_atom_site_label
_atom_site_type_symbol
_atom_site_fract_x
_atom_site_fract_y
_atom_site_fract_z
Yb1 Yb 0.14799(7) -0.17770(5) 0.04259(5)
O1 O -0.7523(14) -0.2814(10) -0.1549(11)
O2 O -0.2081(13) -0.3746(10) -0.0839(10)
O3 O 0.0875(14) -0.1728(10) 0.2997(9)
O4 O -0.0396(12) 0.0003(9) 0.1406(8)
O5 O -0.4631(13) -0.0543(9) -0.1686(10)
O6 O -0.3451(14) -0.6634(10) -0.1809(10)
C1 C -0.6000(17) -0.2161(12) -0.2112(12)
C2 C -0.0597(19) 0.0170(14) 0.4125(12)
H1 H -0.2303 -0.0342 0.3797
H2 H -0.0166 0.1430 0.4171
C3 C 0.0034(17) -0.0552(12) 0.2818(11)
C4 C -0.577(2) -0.3284(14) -0.3444(12)
H3 H -0.7031 -0.3409 -0.4516
H4 H -0.4272 -0.2682 -0.3548
C5 C -0.3661(17) -0.5170(12) -0.1849(12)
C6 C -0.5882(17) -0.5089(12) -0.3079(12)
H5 H -0.642(14) -0.588(11) -0.401(11)
H6 H -0.721(18) -0.562(13) -0.273(13)
Yb1_2 Yb -0.85201(7) -0.17770(5) 0.04259(5)
Yb1A Yb -0.14799(7) 0.17770(5) -0.04259(5)
Yb1A_2 Yb 0.85201(7) -0.82230(5) -0.04259(5)
Yb1A_3 Yb -0.14799(7) 0.17770(5) 0.95741(5)
Yb1_3 Yb 0.14799(7) -0.17770(5) 1.04259(5)
Yb1A_4 Yb -0.14799(7) -0.82230(5) -0.04259(5)
Yb1_4 Yb 0.14799(7) -1.17770(5) 0.04259(5)
O1_2 O 0.2477(14) -0.2814(10) -0.1549(11)
O1A O 0.7523(14) -0.7186(10) 0.1549(11)
O1A_2 O -0.2477(14) -0.7186(10) 0.1549(11)
O2A O 0.2081(13) -0.6254(10) 0.0839(10)
O3A O -0.0875(14) 0.1728(10) 0.7003(9)
O3A_2 O -0.0875(14) -0.8272(10) -0.2997(9)
O4A O 0.0396(12) -0.0003(9) 0.8594(8)
O4A_2 O 0.0396(12) -0.0003(9) -0.1406(8)
O4_2 O -0.0396(12) -0.9997(9) 0.1406(8)
O4A_3 O 0.0396(12) -1.0003(9) -0.1406(8)
O5A O 0.4631(13) 0.0543(9) 0.1686(10)
O5_2 O -0.4631(13) -1.0543(9) -0.1686(10)
O5A_2 O 0.4631(13) -0.9457(9) 0.1686(10)
O6A O 0.3451(14) -0.3366(10) 0.1809(10)
C1A C 0.6000(17) -0.7839(12) 0.2112(12)
C2A C 0.0597(19) -0.0170(14) 0.5875(12)
H1A H 0.2303 0.0342 0.6203
H2A H 0.0166 -0.1430 0.5829
C3A C -0.0034(17) 0.0552(12) 0.7182(11)
C4A C 0.577(2) -0.6716(14) 0.3444(12)
H3A H 0.7031 -0.6591 0.4516
H4A H 0.4272 -0.7318 0.3548
C5A C 0.3661(17) -0.4830(12) 0.1849(12)
C6A C 0.5882(17) -0.4911(12) 0.3079(12)
H5A H 0.642(14) -0.412(11) 0.401(11)
H6A H 0.721(18) -0.438(13) 0.273(13)
loop_
_geom_bond_atom_site_label_1
_geom_bond_atom_site_label_2
_geom_bond_site_symmetry_1
_geom_bond_site_symmetry_2
Yb1 O2 1_555 1_555
O1 C1 1_555 1_555
O2 C5 1_555 1_555
O3 Yb1 1_555 1_555
O4 Yb1 1_555 1_555
O5 C1 1_555 1_555
O6 C5 1_555 1_555
C1 C4 1_555 1_555
C2 H1 1_555 1_555
H2 C2 1_555 1_555
C3 O3 1_555 1_555
C4 H3 1_555 1_555
H4 C4 1_555 1_555
C5 C6 1_555 1_555
C6 C4 1_555 1_555
H5 C6 1_555 1_555
H6 C6 1_555 1_555
Yb1_2 O1 1_555 1_555
Yb1A O4 1_555 1_555
Yb1A_2 O1A 1_555 1_555
Yb1A_3 O3A 1_555 1_555
Yb1_3 O4A 1_555 1_555
Yb1A_4 O6 1_555 1_555
Yb1_4 O4_2 1_555 1_555
O1_2 Yb1 1_555 1_555
O1A C1A 1_555 1_555
O1A_2 Yb1A_4 1_555 1_555
O2A Yb1A_4 1_555 1_555
O3A C3A 1_555 1_555
O3A_2 Yb1A_4 1_555 1_555
O4A Yb1A_3 1_555 1_555
O4A_2 Yb1 1_555 1_555
O4_2 Yb1A_4 1_555 1_555
O4A_3 Yb1A_4 1_555 1_555
O5A Yb1 1_555 1_555
O5_2 Yb1A_4 1_555 1_555
O5A_2 Yb1_4 1_555 1_555
O6A Yb1 1_555 1_555
C1A O5A_2 1_555 1_555
C2A C2 1_555 1_555
H1A C2A 1_555 1_555
H2A C2A 1_555 1_555
C3A O4A 1_555 1_555
C4A C1A 1_555 1_555
H3A C4A 1_555 1_555
H4A C4A 1_555 1_555
C5A O2A 1_555 1_555
C6A C4A 1_555 1_555
H5A C6A 1_555 1_555
H6A C6A 1_555 1_555
O4 C3 1_555 1_555
O5 Yb1A 1_555 1_555
C2 C3 1_555 1_555
Yb1A O4A_2 1_555 1_555
Yb1_4 O4A_3 1_555 1_555
O6A C5A 1_555 1_555
C2A C3A 1_555 1_555
C5A C6A 1_555 1_555

#END
