
#######################################################################
#
#                 Cambridge Crystallographic Data Centre
#                                CCDC 
#
#######################################################################
#
# If this CIF has been generated from an entry in the Cambridge 
# Structural Database, then it will include bibliographic, chemical, 
# crystal, experimental, refinement or atomic coordinate data resulting 
# from the CCDC's data processing and validation procedures.
#
#######################################################################

data_YUDCOQ
_symmetry_cell_setting           triclinic
_symmetry_space_group_name_H-M   'P -1'
_symmetry_Int_Tables_number      2
_space_group_name_Hall           '-P 1'
loop_
_symmetry_equiv_pos_site_id
_symmetry_equiv_pos_as_xyz
1 x,y,z
2 -x,-y,-z
_cell_length_a                   6.4334(13)
_cell_length_b                   8.1428(16)
_cell_length_c                   8.5979(17)
_cell_angle_alpha                92.87(3)
_cell_angle_beta                 110.20(3)
_cell_angle_gamma                108.98(3)
_cell_volume                     392.976
loop_
_atom_site_label
_atom_site_type_symbol
_atom_site_fract_x
_atom_site_fract_y
_atom_site_fract_z
Yb1 Yb 0.14785(7) 0.32241(5) 1.04235(5)
O1 O 0.5350(12) 0.4450(9) 0.8312(10)
O2 O 0.2473(14) 0.2171(10) 0.8459(10)
O3 O 0.7920(13) 0.1248(10) 0.9151(10)
O4 O 0.0888(14) 0.3277(9) 1.2995(9)
O5 O -0.0410(13) 0.4984(9) 1.1415(9)
O6 O 0.6544(15) -0.1626(10) 0.8215(10)
C1 C -0.0609(19) 0.5176(14) 1.4133(12)
H1 H -0.2318 0.4664 1.3820
H2 H -0.0173 0.6441 1.4189
C2 C 0.4007(17) 0.2852(12) 0.7887(12)
C3 C 0.4110(17) -0.0086(12) 0.6904(13)
C4 C 0.0007(17) 0.4442(11) 1.2783(12)
C5 C 0.6341(17) -0.0175(12) 0.8155(12)
C6 C 0.424(2) 0.1724(14) 0.6545(13)
H3 H 0.366(16) -0.093(12) 0.594(12)
H4 H 0.26(2) 0.164(15) 0.551(15)
H5 H 0.566(17) 0.242(12) 0.642(12)
H6 H 0.278(18) -0.072(13) 0.725(12)
Yb1A Yb 0.85215(7) 0.67759(5) 0.95765(5)
Yb1_2 Yb 1.14785(7) 0.32241(5) 1.04235(5)
Yb1A_2 Yb -0.14785(7) 0.67759(5) 0.95765(5)
Yb1A_3 Yb 0.85215(7) -0.32241(5) 0.95765(5)
Yb1A_4 Yb -0.14785(7) 0.67759(5) 1.95765(5)
Yb1_3 Yb 0.14785(7) 0.32241(5) 2.04235(5)
Yb1_4 Yb 0.14785(7) 1.32241(5) 1.04235(5)
O1A O 0.4650(12) 0.5550(9) 1.1688(10)
O2A O 0.7527(14) 0.7829(10) 1.1541(10)
O3A O 0.2080(13) 0.8752(10) 1.0849(10)
O3_2 O -0.2080(13) 0.1248(10) 0.9151(10)
O3A_2 O 1.2080(13) 0.8752(10) 1.0849(10)
O4A O -0.0888(14) 0.6723(9) 1.7005(9)
O4A_2 O 0.9112(14) 0.6723(9) 0.7005(9)
O5A O 0.0410(13) 0.5016(9) 1.8585(9)
O5A_2 O 0.0410(13) 0.5016(9) 0.8585(9)
O5A_3 O 1.0410(13) 0.5016(9) 0.8585(9)
O5_2 O 0.9590(13) 0.4984(9) 1.1415(9)
O6A O 0.3456(15) 1.1626(10) 1.1785(10)
O6A_2 O 0.3456(15) 0.1626(10) 1.1785(10)
O6_2 O 0.6544(15) 0.8374(10) 0.8215(10)
C1A C 0.0609(19) 0.4824(14) 1.5867(12)
H1A H 0.2318 0.5336 1.6180
H2A H 0.0173 0.3559 1.5811
C2A C 0.5993(17) 0.7148(12) 1.2113(12)
C3A C 0.5890(17) 1.0086(12) 1.3096(13)
C4A C -0.0007(17) 0.5558(11) 1.7217(12)
C5A C 0.3659(17) 1.0175(12) 1.1845(12)
C6A C 0.576(2) 0.8276(14) 1.3455(13)
H3A H 0.634(16) 1.093(12) 1.406(12)
H4A H 0.74(2) 0.836(15) 1.449(15)
H5A H 0.434(17) 0.758(12) 1.358(12)
H6A H 0.722(18) 1.072(13) 1.275(12)
loop_
_geom_bond_atom_site_label_1
_geom_bond_atom_site_label_2
_geom_bond_site_symmetry_1
_geom_bond_site_symmetry_2
Yb1 O2 1_555 1_555
O1 C2 1_555 1_555
O2 C2 1_555 1_555
O3 C5 1_555 1_555
O4 Yb1 1_555 1_555
O5 Yb1 1_555 1_555
O6 C5 1_555 1_555
C1 H1 1_555 1_555
H2 C1 1_555 1_555
C2 C6 1_555 1_555
C3 C5 1_555 1_555
C4 O4 1_555 1_555
C6 C3 1_555 1_555
H3 C3 1_555 1_555
H4 C6 1_555 1_555
H5 C6 1_555 1_555
H6 C3 1_555 1_555
Yb1A O1 1_555 1_555
Yb1_2 O3 1_555 1_555
Yb1A_2 O5 1_555 1_555
Yb1A_3 O6 1_555 1_555
Yb1A_4 O4A 1_555 1_555
Yb1_3 O5A 1_555 1_555
Yb1_4 O6A 1_555 1_555
O1A Yb1 1_555 1_555
O2A Yb1A 1_555 1_555
O3A Yb1A_2 1_555 1_555
O3_2 Yb1 1_555 1_555
O3A_2 Yb1A 1_555 1_555
O4A C4A 1_555 1_555
O4A_2 Yb1A 1_555 1_555
O5A Yb1A_4 1_555 1_555
O5A_2 Yb1 1_555 1_555
O5A_3 Yb1A 1_555 1_555
O5_2 Yb1A 1_555 1_555
O6A C5A 1_555 1_555
O6A_2 Yb1 1_555 1_555
O6_2 Yb1A 1_555 1_555
C1A C1 1_555 1_555
H1A C1A 1_555 1_555
H2A C1A 1_555 1_555
C2A O1A 1_555 1_555
C3A C5A 1_555 1_555
C4A O5A 1_555 1_555
C5A O3A 1_555 1_555
C6A C2A 1_555 1_555
H3A C3A 1_555 1_555
H4A C6A 1_555 1_555
H5A C6A 1_555 1_555
H6A C3A 1_555 1_555
O5 C4 1_555 1_555
C1 C4 1_555 1_555
Yb1_2 O5A_3 1_555 1_555
Yb1_2 O5_2 1_555 1_555
Yb1A_2 O5A_2 1_555 1_555
O2A C2A 1_555 1_555
C1A C4A 1_555 1_555
C3A C6A 1_555 1_555

#END
