
#######################################################################
#
#                 Cambridge Crystallographic Data Centre
#                                CCDC 
#
#######################################################################
#
# If this CIF has been generated from an entry in the Cambridge 
# Structural Database, then it will include bibliographic, chemical, 
# crystal, experimental, refinement or atomic coordinate data resulting 
# from the CCDC's data processing and validation procedures.
#
#######################################################################

data_YUDFEK
_symmetry_cell_setting           monoclinic
_symmetry_space_group_name_H-M   'P 21/n'
_symmetry_Int_Tables_number      14
_space_group_name_Hall           '-P 2yn'
loop_
_symmetry_equiv_pos_site_id
_symmetry_equiv_pos_as_xyz
1 x,y,z
2 1/2-x,1/2+y,1/2-z
3 -x,-y,-z
4 1/2+x,1/2-y,1/2+z
_cell_length_a                   13.137(5)
_cell_length_b                   30.227(5)
_cell_length_c                   23.326(5)
_cell_angle_alpha                90
_cell_angle_beta                 102.075(5)
_cell_angle_gamma                90
_cell_volume                     9057.63
loop_
_atom_site_label
_atom_site_type_symbol
_atom_site_fract_x
_atom_site_fract_y
_atom_site_fract_z
Gd1 Gd 0.649697(18) 0.270181(7) -0.228565(10)
Gd2 Gd 0.349247(18) 0.245125(7) -0.300849(10)
C1 C 0.5089(4) 0.24441(16) -0.3711(2)
C2 C 0.5891(4) 0.24237(17) -0.4092(2)
C3 C 0.6739(4) 0.27051(17) -0.3992(2)
H1 H 0.6831 0.2908 -0.3685
C4 C 0.7445(4) 0.26807(18) -0.4354(2)
C5 C 0.7347(4) 0.23883(17) -0.4823(2)
C6 C 0.6469(4) 0.21185(19) -0.4909(2)
C7 C 0.5746(4) 0.21317(18) -0.4558(2)
H2 H 0.5168 0.1946 -0.4634
C8 C 0.8053(4) 0.23909(18) -0.5251(2)
C9 C 0.9021(4) 0.21782(18) -0.5155(2)
C10 C 0.9650(4) 0.21743(17) -0.5560(2)
H3 H 1.0306 0.2045 -0.5470
C11 C 0.9288(4) 0.23656(16) -0.6103(2)
C12 C 0.8333(4) 0.25760(17) -0.6229(2)
H4 H 0.8087 0.2703 -0.6594
C13 C 0.7749(4) 0.25928(18) -0.5798(2)
C14 C 0.9961(4) 0.23453(15) -0.6551(2)
C15 C 0.4574(4) 0.34741(16) -0.2732(2)
C16 C 0.4330(4) 0.39660(16) -0.2711(2)
C17 C 0.5066(4) 0.42559(16) -0.2417(2)
H5 H 0.5732 0.4155 -0.2252
C18 C 0.4818(4) 0.46978(17) -0.2368(3)
C19 C 0.3841(4) 0.48737(17) -0.2604(2)
C20 C 0.3121(4) 0.45649(19) -0.2900(3)
C21 C 0.3352(4) 0.41269(19) -0.2956(3)
H6 H 0.2847 0.3937 -0.3160
C22 C 0.5415(4) 0.16981(16) -0.2468(2)
C23 C 0.5654(4) 0.12080(16) -0.2431(2)
C24 C 0.4906(4) 0.09056(17) -0.2683(2)
H7 H 0.4240 0.1000 -0.2859
C25 C 0.5160(4) 0.04583(17) -0.2669(2)
C26 C 0.6138(4) 0.02937(17) -0.2432(2)
C27 C 0.6887(4) 0.06159(17) -0.2193(2)
C28 C 0.6645(4) 0.10584(17) -0.2183(2)
H8 H 0.7151 0.1259 -0.2008
C29 C 0.6405(4) -0.01835(16) -0.2489(2)
C30 C 0.6597(4) -0.03442(17) -0.3014(2)
C31 C 0.6859(4) -0.07787(17) -0.3095(2)
H9 H 0.6980 -0.0871 -0.3456
C32 C 0.6942(4) -0.10762(16) -0.2634(2)
C33 C 0.6720(4) -0.09349(17) -0.2106(2)
H10 H 0.6755 -0.1133 -0.1797
C34 C 0.6447(4) -0.04981(17) -0.2043(2)
C35 C 0.7306(4) -0.15404(16) -0.2708(2)
C36 C 0.2581(4) 0.66685(16) -0.2149(2)
C37 C 0.2979(4) 0.62144(16) -0.2252(2)
C38 C 0.3159(4) 0.61060(17) -0.2798(2)
H11 H 0.3068 0.6317 -0.3094
C39 C 0.3475(4) 0.56826(17) -0.2903(2)
C40 C 0.3563(4) 0.53408(17) -0.2487(2)
C41 C 0.3411(4) 0.54752(17) -0.1943(2)
C42 C 0.3149(4) 0.59021(17) -0.1813(2)
H12 H 0.3088 0.5976 -0.1435
C43 C 0.1955(4) 0.27687(19) -0.4326(3)
H13 H 0.2015 0.2515 -0.4541
C44 C 0.1179(6) 0.3124(2) -0.5250(3)
H14 H 0.0897 0.3408 -0.5378
H15 H 0.0651 0.2902 -0.5360
H16 H 0.1756 0.3059 -0.5429
C45 C 0.1371(7) 0.3528(2) -0.4297(4)
H17 H 0.1061 0.3751 -0.4572
H18 H 0.2029 0.3632 -0.4079
H19 H 0.0919 0.3466 -0.4033
C46 C 0.2042(5) 0.31265(19) -0.2358(3)
H20 H 0.2637 0.3272 -0.2162
C47 C 0.1064(7) 0.3726(3) -0.2063(4)
H21 H 0.0340 0.3802 -0.2117
H22 H 0.1425 0.3955 -0.2226
H23 H 0.1358 0.3697 -0.1652
C48 C 0.8265(6) 0.2099(3) -0.2780(3)
H24 H 0.8778 0.2272 -0.2550
C49 C 0.9585(8) 0.1563(4) -0.2856(4)
H25 H 0.9595 0.1284 -0.3051
H26 H 0.9824 0.1523 -0.2442
H27 H 1.0034 0.1768 -0.2998
C50 C 0.7781(8) 0.1435(3) -0.3333(4)
H28 H 0.8106 0.1173 -0.3445
H29 H 0.7444 0.1592 -0.3678
H30 H 0.7275 0.1353 -0.3109
C51 C 0.8209(4) 0.23954(19) -0.1098(3)
H31 H 0.8045 0.2640 -0.0892
C52 C 0.8936(5) 0.1657(2) -0.1088(3)
H32 H 0.9285 0.1451 -0.0800
H33 H 0.9382 0.1730 -0.1353
H34 H 0.8305 0.1526 -0.1304
C53 C 0.8952(5) 0.2060(3) -0.0163(3)
H35 H 0.9297 0.1788 -0.0027
H36 H 0.8329 0.2087 -0.0013
H37 H 0.9406 0.2304 -0.0029
C54 C 0.0226(9) 0.3131(6) -0.2680(11)
H38 H -0.0352 0.3308 -0.2625
H39 H 0.0145 0.2835 -0.2546
H40 H 0.0250 0.3125 -0.3089
N1 N 0.8314(4) 0.29953(17) -0.4241(2)
N2 N 0.6273(4) 0.18179(19) -0.5414(2)
N3 N 0.9411(4) 0.19419(18) -0.4602(2)
N4 N 0.6764(4) 0.28409(17) -0.5944(2)
N5 N 0.5630(4) 0.49791(15) -0.2016(2)
N6 N 0.2059(4) 0.47053(17) -0.3174(3)
N7 N 0.4329(4) 0.01593(15) -0.2970(3)
N8 N 0.7980(4) 0.04906(16) -0.1988(2)
N9 N 0.6545(4) -0.00473(15) -0.3523(2)
N10 N 0.6193(4) -0.03733(16) -0.1481(2)
N11 N 0.3546(4) 0.51525(16) -0.1451(2)
N12 N 0.3711(5) 0.56035(16) -0.3481(2)
N13 N 0.1530(4) 0.31256(16) -0.4614(2)
N14 N 0.1165(5) 0.3314(2) -0.2354(3)
N15 N 0.8594(5) 0.1726(2) -0.2967(2)
N16 N 0.8688(4) 0.20588(16) -0.0797(2)
O1 O 0.4197(3) 0.23056(12) -0.39084(15)
O2 O 0.5360(3) 0.26098(11) -0.32031(15)
O3 O 0.8147(4) 0.33628(16) -0.4082(2)
O4 O 0.9166(4) 0.2863(2) -0.4296(2)
O5 O 0.5375(5) 0.1776(2) -0.5672(2)
O6 O 0.6979(4) 0.16212(16) -0.5553(2)
O7 O 0.6350(3) 0.28734(19) -0.64565(19)
O8 O 0.6429(4) 0.30120(17) -0.55488(19)
O9 O 0.8775(4) 0.1804(2) -0.4336(2)
O10 O 1.0326(4) 0.1864(2) -0.4460(2)
O11 O 0.9550(3) 0.24111(11) -0.70814(14)
O12 O 0.3844(3) 0.32336(11) -0.29895(16)
O13 O 0.5473(3) 0.33620(11) -0.24864(16)
O14 O 0.1499(5) 0.4448(2) -0.3461(5)
O15 O 0.1742(4) 0.50604(15) -0.3054(3)
O16 O 0.6280(3) 0.47965(14) -0.1638(2)
O17 O 0.5612(3) 0.53759(13) -0.2108(2)
O18 O 0.6078(3) 0.19420(11) -0.21578(16)
O19 O 0.4591(3) 0.18051(11) -0.28131(16)
O20 O 0.4345(3) -0.02281(14) -0.2819(3)
O21 O 0.3680(3) 0.03111(13) -0.3369(2)
O22 O 0.8231(3) 0.01023(13) -0.2021(2)
O23 O 0.8611(3) 0.07855(15) -0.1818(2)
O24 O 0.6304(4) -0.02132(15) -0.40078(19)
O25 O 0.6741(3) 0.03445(13) -0.34332(19)
O26 O 0.5983(4) -0.06639(15) -0.1170(2)
O27 O 0.6201(5) 0.00152(14) -0.1353(2)
O28 O 0.7499(3) -0.16463(12) -0.31922(16)
O29 O 0.2239(3) 0.69026(11) -0.25868(16)
O30 O 0.2571(3) 0.67871(12) -0.16310(15)
O31 O 0.3935(5) 0.59151(16) -0.3752(2)
O32 O 0.3728(7) 0.52336(17) -0.3653(3)
O33 O 0.3879(5) 0.52969(16) -0.0961(2)
O34 O 0.3301(4) 0.47700(13) -0.1562(2)
O35 O 0.2271(3) 0.27540(13) -0.37943(18)
O36 O 0.2168(3) 0.27750(12) -0.25959(18)
O37 O 0.7413(3) 0.22475(13) -0.28594(17)
O38 O 0.7963(3) 0.24038(12) -0.16410(17)
O39 O 1.0905(3) 0.22644(12) -0.63778(15)
O40 O 0.7444(3) -0.17940(11) -0.22695(17)
Gd1A Gd 0.850303(18) -0.229819(7) -0.271435(10)
Gd1C Gd 1.149697(18) 0.229819(7) -0.728565(10)
Gd2A Gd 0.150753(18) 0.745125(7) -0.199151(10)
Gd2C Gd 0.849247(18) 0.254875(7) -0.800849(10)
O11C O 0.4550(3) 0.25889(11) -0.20814(14)
O28A O 0.7501(3) 0.33537(12) -0.18078(16)
O29A O 0.2761(3) 0.19026(11) -0.24132(16)
O30A O 0.2429(3) 0.17871(12) -0.33690(15)
O39C O 0.5905(3) 0.27356(12) -0.13778(15)
O40A O 0.7556(3) 0.32060(11) -0.27305(17)
C55 C 0.2769(5) 0.1704(2) -0.4742(3)
H41 H 0.2634 0.1768 -0.4375
C56 C 0.3854(8) 0.1115(3) -0.4254(4)
H42 H 0.4272 0.0879 -0.4356
H43 H 0.3317 0.0994 -0.4078
H44 H 0.4285 0.1310 -0.3980
C57 C 0.3580(7) 0.1209(3) -0.5336(3)
H45 H 0.4040 0.0959 -0.5272
H46 H 0.3896 0.1443 -0.5517
H47 H 0.2935 0.1125 -0.5589
N17 N 0.3383(5) 0.13610(19) -0.4780(2)
O41 O 0.2366(3) 0.19412(15) -0.51495(18)
C58 C -0.1051(7) 0.1148(2) -0.6044(4)
H48 H -0.1622 0.1067 -0.5890
C59 C 0.0053(17) 0.0844(4) -0.5182(5)
H49 H 0.0783 0.0809 -0.5023
H50 H -0.0275 0.0559 -0.5232
H51 H -0.0254 0.1019 -0.4919
C60 C 0.0839(7) 0.1170(3) -0.5972(5)
H52 H 0.1458 0.1086 -0.5697
H53 H 0.0853 0.1483 -0.6043
H54 H 0.0807 0.1014 -0.6334
N18 N -0.0088(6) 0.1060(2) -0.5731(3)
O42 O -0.1205(5) 0.13278(17) -0.6514(2)
C61 C -0.3040(8) 0.0815(3) -0.4598(4)
H55 H -0.2504 0.0818 -0.4267
C62 C -0.2186(10) 0.0166(4) -0.4871(6)
H56 H -0.2249 -0.0031 -0.5199
H57 H -0.2274 0.0002 -0.4532
H58 H -0.1510 0.0301 -0.4795
C63 C -0.3819(7) 0.0472(3) -0.5453(6)
H59 H -0.3687 0.0243 -0.5712
H60 H -0.3934 0.0747 -0.5663
H61 H -0.4425 0.0399 -0.5303
N19 N -0.2995(8) 0.0513(3) -0.5004(4)
O43 O -0.3739(6) 0.1096(2) -0.4623(3)
C64 C 0.8743(7) 0.3834(3) -0.5371(5)
H62 H 0.8611 0.3916 -0.5009
C65 C 0.9513(9) 0.3972(4) -0.6189(4)
H63 H 0.9945 0.4190 -0.6322
H64 H 0.8859 0.3953 -0.6463
H65 H 0.9855 0.3690 -0.6159
C66 C 0.9741(9) 0.4493(3) -0.5321(4)
H66 H 1.0145 0.4650 -0.5554
H67 H 1.0175 0.4417 -0.4950
H68 H 0.9177 0.4677 -0.5260
N20 N 0.9335(5) 0.4100(2) -0.5619(3)
O44 O 0.8363(6) 0.3489(3) -0.5589(5)
C67 C 0.5766(8) 0.4223(3) -0.4305(4)
C68 C 0.6395(9) 0.4174(4) -0.4695(4)
H69 H 0.6555 0.3896 -0.4822
C69 C 0.6793(8) 0.4564(4) -0.4898(4)
H70 H 0.7230 0.4549 -0.5163
C70 C 0.6528(8) 0.4966(4) -0.4698(4)
C71 C 0.5870(7) 0.5008(3) -0.4308(4)
H71 H 0.5688 0.5285 -0.4185
C72 C 0.5492(8) 0.4620(3) -0.4107(4)
H72 H 0.5057 0.4632 -0.3840
C73 C 0.7020 0.5315 -0.4883
H73 H 0.7412 0.5256 -0.5163
O45 O 0.7006(9) 0.5714(3) -0.4717(5)
Cl1 Cl 0.5285(3) 0.37401(9) -0.40287(12)
loop_
_geom_bond_atom_site_label_1
_geom_bond_atom_site_label_2
_geom_bond_site_symmetry_1
_geom_bond_site_symmetry_2
Gd1 O2 1_555 1_555
Gd2 O1 1_555 1_555
C1 C2 1_555 1_555
C2 C3 1_555 1_555
C3 H1 1_555 1_555
C4 C3 1_555 1_555
C5 C4 1_555 1_555
C6 C5 1_555 1_555
C7 C2 1_555 1_555
H2 C7 1_555 1_555
C8 C5 1_555 1_555
C9 C8 1_555 1_555
C10 C9 1_555 1_555
H3 C10 1_555 1_555
C11 C10 1_555 1_555
C12 C11 1_555 1_555
H4 C12 1_555 1_555
C13 C8 1_555 1_555
C14 C11 1_555 1_555
C15 C16 1_555 1_555
C16 C17 1_555 1_555
C17 H5 1_555 1_555
C18 C17 1_555 1_555
C19 C18 1_555 1_555
C20 C19 1_555 1_555
C21 C16 1_555 1_555
H6 C21 1_555 1_555
C22 C23 1_555 1_555
C23 C24 1_555 1_555
C24 H7 1_555 1_555
C25 C24 1_555 1_555
C26 C25 1_555 1_555
C27 C26 1_555 1_555
C28 C23 1_555 1_555
H8 C28 1_555 1_555
C29 C26 1_555 1_555
C30 C29 1_555 1_555
C31 C30 1_555 1_555
H9 C31 1_555 1_555
C32 C31 1_555 1_555
C33 C32 1_555 1_555
H10 C33 1_555 1_555
C34 C29 1_555 1_555
C35 C32 1_555 1_555
C36 C37 1_555 1_555
C37 C38 1_555 1_555
C38 H11 1_555 1_555
C39 C38 1_555 1_555
C40 C19 1_555 1_555
C41 C40 1_555 1_555
C42 C37 1_555 1_555
H12 C42 1_555 1_555
C43 H13 1_555 1_555
C44 H14 1_555 1_555
H15 C44 1_555 1_555
H16 C44 1_555 1_555
C45 H17 1_555 1_555
H18 C45 1_555 1_555
H19 C45 1_555 1_555
C46 H20 1_555 1_555
C47 H21 1_555 1_555
H22 C47 1_555 1_555
H23 C47 1_555 1_555
C48 H24 1_555 1_555
C49 H25 1_555 1_555
H26 C49 1_555 1_555
H27 C49 1_555 1_555
C50 H28 1_555 1_555
H29 C50 1_555 1_555
H30 C50 1_555 1_555
C51 H31 1_555 1_555
C52 H32 1_555 1_555
H33 C52 1_555 1_555
H34 C52 1_555 1_555
C53 H35 1_555 1_555
H36 C53 1_555 1_555
H37 C53 1_555 1_555
C54 H38 1_555 1_555
H39 C54 1_555 1_555
H40 C54 1_555 1_555
N1 C4 1_555 1_555
N2 C6 1_555 1_555
N3 C9 1_555 1_555
N4 C13 1_555 1_555
N5 C18 1_555 1_555
N6 C20 1_555 1_555
N7 C25 1_555 1_555
N8 C27 1_555 1_555
N9 C30 1_555 1_555
N10 C34 1_555 1_555
N11 C41 1_555 1_555
N12 C39 1_555 1_555
N13 C43 1_555 1_555
N14 C46 1_555 1_555
N15 C48 1_555 1_555
N16 C51 1_555 1_555
O1 C1 1_555 1_555
O2 Gd2 1_555 1_555
O3 N1 1_555 1_555
O4 N1 1_555 1_555
O5 N2 1_555 1_555
O6 N2 1_555 1_555
O7 N4 1_555 1_555
O8 N4 1_555 1_555
O9 N3 1_555 1_555
O10 N3 1_555 1_555
O11 C14 1_555 1_555
O12 Gd2 1_555 1_555
O13 Gd1 1_555 1_555
O14 N6 1_555 1_555
O15 N6 1_555 1_555
O16 N5 1_555 1_555
O17 N5 1_555 1_555
O18 Gd1 1_555 1_555
O19 Gd2 1_555 1_555
O20 N7 1_555 1_555
O21 N7 1_555 1_555
O22 N8 1_555 1_555
O23 N8 1_555 1_555
O24 N9 1_555 1_555
O25 N9 1_555 1_555
O26 N10 1_555 1_555
O27 N10 1_555 1_555
O28 C35 1_555 1_555
O29 C36 1_555 1_555
O30 C36 1_555 1_555
O31 N12 1_555 1_555
O32 N12 1_555 1_555
O33 N11 1_555 1_555
O34 N11 1_555 1_555
O35 Gd2 1_555 1_555
O36 Gd2 1_555 1_555
O37 Gd1 1_555 1_555
O38 Gd1 1_555 1_555
O39 C14 1_555 1_555
O40 C35 1_555 1_555
C55 H41 1_555 1_555
C56 H42 1_555 1_555
H43 C56 1_555 1_555
H44 C56 1_555 1_555
C57 H45 1_555 1_555
H46 C57 1_555 1_555
H47 C57 1_555 1_555
N17 C55 1_555 1_555
O41 C55 1_555 1_555
C58 H48 1_555 1_555
C59 H49 1_555 1_555
H50 C59 1_555 1_555
H51 C59 1_555 1_555
C60 H52 1_555 1_555
H53 C60 1_555 1_555
H54 C60 1_555 1_555
N18 C58 1_555 1_555
O42 C58 1_555 1_555
C61 H55 1_555 1_555
C62 H56 1_555 1_555
H57 C62 1_555 1_555
H58 C62 1_555 1_555
C63 H59 1_555 1_555
H60 C63 1_555 1_555
H61 C63 1_555 1_555
N19 C61 1_555 1_555
O43 C61 1_555 1_555
C64 H62 1_555 1_555
C65 H63 1_555 1_555
H64 C65 1_555 1_555
H65 C65 1_555 1_555
C66 H66 1_555 1_555
H67 C66 1_555 1_555
H68 C66 1_555 1_555
N20 C64 1_555 1_555
O44 C64 1_555 1_555
C67 C68 1_555 1_555
C68 H69 1_555 1_555
C69 C68 1_555 1_555
H70 C69 1_555 1_555
C70 C69 1_555 1_555
C71 C70 1_555 1_555
H71 C71 1_555 1_555
C72 C67 1_555 1_555
H72 C72 1_555 1_555
C73 C70 1_555 1_555
H73 C73 1_555 1_555
O45 C73 1_555 1_555
Cl1 C67 1_555 1_555
Gd1A O28 1_555 1_555
Gd1C O11 1_555 1_555
Gd2A O29 1_555 1_555
Gd2C O11 1_555 1_555
O11C Gd1 1_555 1_555
O28A Gd1 1_555 1_555
O29A Gd2 1_555 1_555
O30A Gd2 1_555 1_555
O39C Gd1 1_555 1_555
O40A Gd1 1_555 1_555
Gd2 O11C 1_555 1_555
C1 O2 1_555 1_555
C6 C7 1_555 1_555
C12 C13 1_555 1_555
C15 O12 1_555 1_555
C15 O13 1_555 1_555
C20 C21 1_555 1_555
C22 O18 1_555 1_555
C22 O19 1_555 1_555
C27 C28 1_555 1_555
C33 C34 1_555 1_555
C39 C40 1_555 1_555
C41 C42 1_555 1_555
C43 O35 1_555 1_555
C44 N13 1_555 1_555
C45 N13 1_555 1_555
C46 O36 1_555 1_555
C47 N14 1_555 1_555
C48 O37 1_555 1_555
C49 N15 1_555 1_555
C50 N15 1_555 1_555
C51 O38 1_555 1_555
C52 N16 1_555 1_555
C53 N16 1_555 1_555
C54 N14 1_555 1_555
O30 Gd2A 1_555 1_555
O39 Gd1C 1_555 1_555
O40 Gd1A 1_555 1_555
C56 N17 1_555 1_555
C57 N17 1_555 1_555
C59 N18 1_555 1_555
C60 N18 1_555 1_555
C62 N19 1_555 1_555
C63 N19 1_555 1_555
C65 N20 1_555 1_555
C66 N20 1_555 1_555
C71 C72 1_555 1_555

#END
