
#######################################################################
#
#                 Cambridge Crystallographic Data Centre
#                                CCDC 
#
#######################################################################
#
# If this CIF has been generated from an entry in the Cambridge 
# Structural Database, then it will include bibliographic, chemical, 
# crystal, experimental, refinement or atomic coordinate data resulting 
# from the CCDC's data processing and validation procedures.
#
#######################################################################

data_YUDMIU
_symmetry_cell_setting           triclinic
_symmetry_space_group_name_H-M   'P -1'
_symmetry_Int_Tables_number      2
_space_group_name_Hall           '-P 1'
loop_
_symmetry_equiv_pos_site_id
_symmetry_equiv_pos_as_xyz
1 x,y,z
2 -x,-y,-z
_cell_length_a                   8.4085(9)
_cell_length_b                   9.6054(10)
_cell_length_c                   10.2017(10)
_cell_angle_alpha                79.8240(10)
_cell_angle_beta                 68.5350(10)
_cell_angle_gamma                88.0200(10)
_cell_volume                     754.342
loop_
_atom_site_label
_atom_site_type_symbol
_atom_site_fract_x
_atom_site_fract_y
_atom_site_fract_z
Pb1 Pb 0.746707(19) 0.438502(16) -0.009506(16)
C1 C 0.3631(6) 0.4990(5) 0.2728(5)
C2 C 0.4358(6) 0.4989(5) 0.3892(5)
C3 C 0.5268(6) 0.6151(5) 0.3932(5)
C4 C 0.4113(7) 0.3837(6) 0.4990(6)
C5 C 0.8577(6) 0.7186(5) 0.0140(6)
C6 C 0.9287(6) 0.8632(5) 0.0071(6)
C7 C 0.9470(7) 0.9746(6) -0.1050(6)
C8 C 0.9847(7) 0.8930(5) 0.1123(5)
C9 C 0.8273(6) 0.3142(6) 0.3080(6)
H1 H 0.8907 0.3977 0.2892
C10 C 0.7213(8) 0.0854(6) 0.4554(6)
H2 H 0.6499 0.0914 0.3998
H3 H 0.6514 0.0676 0.5554
H4 H 0.7987 0.0095 0.4337
C11 C 0.9122(11) 0.2373(9) 0.5117(9)
H5 H 0.9634 0.3309 0.4848
H6 H 0.9999 0.1689 0.5014
H7 H 0.8346 0.2237 0.6095
C12 C 0.5292(9) 0.0894(7) 0.1447(7)
H8 H 0.6307 0.0679 0.1654
H9 H 0.4871 0.0061 0.1262
H10 H 0.4436 0.1208 0.2251
F1 F 0.5511(4) 0.7310(3) 0.2909(3)
F2 F 0.3285(4) 0.2647(3) 0.4999(3)
F3 F 0.9004(4) 0.9581(3) -0.2149(3)
F4 F 0.9723(5) 0.7944(3) 0.2269(4)
N1 N 0.8200(6) 0.2201(5) 0.4204(5)
O1 O 0.4694(4) 0.5046(4) 0.1458(4)
O2 O 0.2062(5) 0.4948(5) 0.3076(4)
O3 O 0.7575(5) 0.7120(4) -0.0517(4)
O4 O 0.9052(4) 0.6133(4) 0.0805(4)
O5 O 0.7540(5) 0.2982(4) 0.2248(4)
O6 O 0.5675(5) 0.1972(4) 0.0231(5)
H11 H 0.4717 0.2314 0.0267
Pb1A Pb 0.253293(19) 0.561498(16) 1.009506(16)
Pb1A_2 Pb 0.253293(19) 0.561498(16) 0.009506(16)
Pb1A_3 Pb 1.253293(19) 0.561498(16) 0.009506(16)
Pb1_2 Pb 0.746707(19) 0.438502(16) 0.990494(16)
Pb1A_4 Pb 1.253293(19) 1.561498(16) 0.009506(16)
Pb1_3 Pb 0.746707(19) 1.438502(16) -0.009506(16)
C1A C 0.6369(6) 0.5010(5) 0.7272(5)
C2A C 0.5642(6) 0.5011(5) 0.6108(5)
C3A C 0.4732(6) 0.3849(5) 0.6068(5)
C4A C 0.5887(7) 0.6163(6) 0.5010(6)
C5A C 1.1423(6) 1.2814(5) -0.0140(6)
C6A C 1.0713(6) 1.1368(5) -0.0071(6)
C7A C 1.0530(7) 1.0254(6) 0.1050(6)
C8A C 1.0153(7) 1.1070(5) -0.1123(5)
C9A C 0.1727(6) 0.6858(6) 0.6920(6)
H1A H 0.1093 0.6023 0.7108
C10A C 0.2787(8) 0.9146(6) 0.5446(6)
H2A H 0.3501 0.9086 0.6002
H3A H 0.3486 0.9324 0.4446
H4A H 0.2013 0.9905 0.5663
C11A C 0.0878(11) 0.7627(9) 0.4883(9)
H5A H 0.0366 0.6691 0.5152
H6A H 0.0001 0.8311 0.4986
H7A H 0.1654 0.7763 0.3905
C12A C 0.4708(9) 0.9106(7) 0.8553(7)
H8A H 0.3693 0.9321 0.8346
H9A H 0.5129 0.9939 0.8738
H10A H 0.5564 0.8792 0.7749
F1A F 0.4489(4) 0.2690(3) 0.7091(3)
F2A F 0.6715(4) 0.7353(3) 0.5001(3)
F3A F 1.0996(4) 1.0419(3) 0.2149(3)
F4A F 1.0277(5) 1.2056(3) -0.2269(4)
N1A N 0.1800(6) 0.7799(5) 0.5796(5)
O1A O 0.5306(4) 0.4954(4) 0.8542(4)
O1A_2 O 0.5306(4) 0.4954(4) -0.1458(4)
O1_2 O 0.4694(4) 0.5046(4) 1.1458(4)
O2A O 0.7938(5) 0.5052(5) 0.6924(4)
O2A_2 O 0.7938(5) 0.5052(5) -0.3076(4)
O2_2 O 0.2062(5) 0.4948(5) 1.3076(4)
O3A O 1.2425(5) 1.2880(4) 0.0517(4)
O3A_2 O 0.2425(5) 0.2880(4) 1.0517(4)
O4A O 1.0948(4) 1.3867(4) -0.0805(4)
O4A_2 O 1.0948(4) 0.3867(4) -0.0805(4)
O4A_3 O 0.0948(4) 0.3867(4) 0.9195(4)
O4_2 O -0.0948(4) 0.6133(4) 1.0805(4)
O5A O 0.2460(5) 0.7018(4) 0.7752(4)
O6A O 0.4325(5) 0.8028(4) 0.9769(5)
H11A H 0.5283 0.7686 0.9733
loop_
_geom_bond_atom_site_label_1
_geom_bond_atom_site_label_2
_geom_bond_site_symmetry_1
_geom_bond_site_symmetry_2
Pb1 O1 1_555 1_555
C1 C2 1_555 1_555
C2 C3 1_555 1_555
C3 F1 1_555 1_555
C4 C2 1_555 1_555
C5 C6 1_555 1_555
C6 C7 1_555 1_555
C7 F3 1_555 1_555
C8 C6 1_555 1_555
C9 H1 1_555 1_555
C10 H2 1_555 1_555
H3 C10 1_555 1_555
H4 C10 1_555 1_555
C11 H5 1_555 1_555
H6 C11 1_555 1_555
H7 C11 1_555 1_555
C12 H8 1_555 1_555
H9 C12 1_555 1_555
H10 C12 1_555 1_555
F2 C4 1_555 1_555
F4 C8 1_555 1_555
N1 C9 1_555 1_555
O1 C1 1_555 1_555
O2 C1 1_555 1_555
O3 Pb1 1_555 1_555
O4 Pb1 1_555 1_555
O5 Pb1 1_555 1_555
O6 Pb1 1_555 1_555
H11 O6 1_555 1_555
Pb1A O1A 1_555 1_555
Pb1A_2 O1 1_555 1_555
Pb1A_3 O4 1_555 1_555
Pb1_2 O1A 1_555 1_555
Pb1A_4 O3A 1_555 1_555
Pb1_3 O4A 1_555 1_555
C1A C2A 1_555 1_555
C2A C3A 1_555 1_555
C3A C4 1_555 1_555
C4A C3 1_555 1_555
C5A C6A 1_555 1_555
C6A C7A 1_555 1_555
C7A C8 1_555 1_555
C8A C7 1_555 1_555
C9A H1A 1_555 1_555
C10A H2A 1_555 1_555
H3A C10A 1_555 1_555
H4A C10A 1_555 1_555
C11A H5A 1_555 1_555
H6A C11A 1_555 1_555
H7A C11A 1_555 1_555
C12A H8A 1_555 1_555
H9A C12A 1_555 1_555
H10A C12A 1_555 1_555
F1A C3A 1_555 1_555
F2A C4A 1_555 1_555
F3A C7A 1_555 1_555
F4A C8A 1_555 1_555
N1A C9A 1_555 1_555
O1A C1A 1_555 1_555
O1A_2 Pb1 1_555 1_555
O1_2 Pb1A 1_555 1_555
O2A Pb1_2 1_555 1_555
O2A_2 Pb1 1_555 1_555
O2_2 Pb1A 1_555 1_555
O3A C5A 1_555 1_555
O3A_2 Pb1A 1_555 1_555
O4A Pb1A_4 1_555 1_555
O4A_2 Pb1 1_555 1_555
O4A_3 Pb1A 1_555 1_555
O4_2 Pb1A 1_555 1_555
O5A Pb1A 1_555 1_555
O6A Pb1A 1_555 1_555
H11A O6A 1_555 1_555
C5 O3 1_555 1_555
C5 O4 1_555 1_555
C9 O5 1_555 1_555
C10 N1 1_555 1_555
C11 N1 1_555 1_555
C12 O6 1_555 1_555
O2 Pb1A_2 1_555 1_555
Pb1A_2 O1A_2 1_555 1_555
Pb1A_3 O4A_2 1_555 1_555
Pb1_2 O1_2 1_555 1_555
C1A O2A 1_555 1_555
C2A C4A 1_555 1_555
C5A O4A 1_555 1_555
C6A C8A 1_555 1_555
C9A O5A 1_555 1_555
C10A N1A 1_555 1_555
C11A N1A 1_555 1_555
C12A O6A 1_555 1_555

#END
