
#######################################################################
#
#                 Cambridge Crystallographic Data Centre
#                                CCDC 
#
#######################################################################
#
# If this CIF has been generated from an entry in the Cambridge 
# Structural Database, then it will include bibliographic, chemical, 
# crystal, experimental, refinement or atomic coordinate data resulting 
# from the CCDC's data processing and validation procedures.
#
#######################################################################

data_YUDNOB
_symmetry_cell_setting           monoclinic
_symmetry_space_group_name_H-M   'C 2/c'
_symmetry_Int_Tables_number      15
_space_group_name_Hall           '-C 2yn'
loop_
_symmetry_equiv_pos_site_id
_symmetry_equiv_pos_as_xyz
1 x,y,z
2 -x,y,1/2-z
3 1/2+x,1/2+y,z
4 1/2-x,1/2+y,1/2-z
5 -x,-y,-z
6 x,-y,1/2+z
7 1/2-x,1/2-y,-z
8 1/2+x,1/2-y,1/2+z
_cell_length_a                   32.609(10)
_cell_length_b                   10.694(3)
_cell_length_c                   25.687(8)
_cell_angle_alpha                90
_cell_angle_beta                 113.897(4)
_cell_angle_gamma                90
_cell_volume                     8189.7
loop_
_atom_site_label
_atom_site_type_symbol
_atom_site_fract_x
_atom_site_fract_y
_atom_site_fract_z
Zn1 Zn 0.242279(18) -0.02339(5) 0.13248(2)
Zn2 Zn 0.0000 0.11674(7) 0.2500
N1 N 0.21124(14) 0.0672(4) 0.05739(16)
N2 N 0.11761(14) 0.3363(4) 0.04645(17)
N3 N 0.0986(2) 0.3767(6) 0.1963(3)
N4 N 0.02738(14) 0.7604(4) -0.18352(16)
N5 N 0.27889(13) -0.1791(3) 0.13157(16)
N6 N 0.32799(13) -0.2295(4) 0.01168(16)
N7 N 0.27793(17) 0.0507(5) -0.1041(2)
N8 N 0.48989(19) -0.6844(5) 0.0202(3)
O1 O 0.20791(12) -0.1009(3) 0.16954(15)
O2 O 0.16221(15) 0.0603(4) 0.15479(18)
O3 O 0.04576(11) 0.0489(3) 0.22854(15)
O4 O 0.05634(13) -0.0633(4) 0.30469(16)
O5 O 0.17343(13) -0.4055(3) 0.35868(15)
O6 O 0.21928(12) -0.4052(3) 0.31401(14)
C1 C 0.17636(17) -0.0413(5) 0.1759(2)
C2 C 0.06574(16) -0.0369(5) 0.2641(2)
C3 C 0.18590(17) -0.3635(4) 0.3224(2)
C4 C 0.15648(15) -0.1037(4) 0.21282(18)
C5 C 0.11903(16) -0.0535(4) 0.21741(19)
H1 H 0.1043 0.0138 0.1945
C6 C 0.10310(15) -0.1021(4) 0.25564(19)
C7 C 0.12452(16) -0.2029(4) 0.28897(19)
H2 H 0.1139 -0.2354 0.3147
C8 C 0.16158(16) -0.2566(4) 0.28472(18)
C9 C 0.17763(15) -0.2059(4) 0.24673(18)
H3 H 0.2028 -0.2406 0.2439
C10 C 0.22629(19) 0.0583(5) 0.0160(2)
H4 H 0.2485 -0.0002 0.0203
C11 C 0.2107(2) 0.1304(5) -0.0323(2)
H5 H 0.2221 0.1214 -0.0600
C12 C 0.17751(18) 0.2173(5) -0.0386(2)
H6 H 0.1660 0.2671 -0.0710
C13 C 0.16135(17) 0.2299(4) 0.00348(19)
C14 C 0.17958(17) 0.1520(4) 0.0510(2)
H7 H 0.1691 0.1597 0.0796
C15 C 0.12730(17) 0.3257(4) 0.0005(2)
C16 C 0.10827(18) 0.4032(5) -0.0470(2)
H8 H 0.1152 0.3922 -0.0784
C17 C 0.07910(17) 0.4961(4) -0.0467(2)
C18 C 0.06905(17) 0.5068(5) 0.0000(2)
H9 H 0.0489 0.5676 0.0007
C19 C 0.08875(17) 0.4274(5) 0.0464(2)
C20 C 0.1013(2) 0.3560(6) 0.1448(2)
H10 H 0.1157 0.2850 0.1396
C21 C 0.08234(18) 0.4419(5) 0.1004(2)
C22 C 0.0594(2) 0.5431(5) 0.1097(3)
H11 H 0.0455 0.5996 0.0802
C23 C 0.0566(2) 0.5619(6) 0.1597(3)
H12 H 0.0409 0.6303 0.1647
C24 C 0.0765(3) 0.4817(7) 0.2022(3)
H13 H 0.0753 0.4972 0.2372
C25 C 0.06034(19) 0.6823(5) -0.1787(2)
H14 H 0.0726 0.6869 -0.2056
C26 C 0.0774(2) 0.5952(5) -0.1362(2)
H15 H 0.1001 0.5416 -0.1353
C27 C 0.06074(16) 0.5870(4) -0.0948(2)
C28 C 0.02740(19) 0.6697(5) -0.0991(2)
H16 H 0.0153 0.6692 -0.0720
C29 C 0.01192(18) 0.7532(5) -0.1434(2)
H17 H -0.0108 0.8080 -0.1452
C30 C 0.28501(19) -0.2643(5) 0.1716(2)
H18 H 0.2715 -0.2530 0.1970
C31 C 0.3108(2) -0.3687(6) 0.1764(3)
H19 H 0.3145 -0.4273 0.2047
C32 C 0.3312(2) -0.3866(5) 0.1394(3)
H20 H 0.3488 -0.4570 0.1427
C33 C 0.32529(16) -0.2999(4) 0.09763(19)
C34 C 0.29945(18) -0.1974(5) 0.0968(2)
H21 H 0.2961 -0.1360 0.0697
C35 C 0.34469(17) -0.3117(4) 0.0548(2)
C36 C 0.37663(17) -0.3986(4) 0.0578(2)
H22 H 0.3872 -0.4545 0.0881
C37 C 0.39323(16) -0.4037(4) 0.0157(2)
C38 C 0.37617(17) -0.3172(5) -0.0282(2)
H23 H 0.3864 -0.3166 -0.0571
C39 C 0.34374(17) -0.2311(4) -0.0293(2)
C40 C 0.29725(19) -0.0405(5) -0.0672(2)
H24 H 0.2927 -0.0412 -0.0337
C41 C 0.32372(17) -0.1352(4) -0.0745(2)
C42 C 0.32961(19) -0.1320(5) -0.1249(2)
H25 H 0.3471 -0.1925 -0.1322
C43 C 0.3096(2) -0.0389(5) -0.1643(2)
H26 H 0.3133 -0.0367 -0.1984
C44 C 0.2845(2) 0.0497(6) -0.1526(3)
H27 H 0.2713 0.1123 -0.1793
C45 C 0.4856(2) -0.6454(6) 0.0671(3)
H28 H 0.5041 -0.6819 0.1015
C46 C 0.4559(2) -0.5550(5) 0.0685(3)
H29 H 0.4551 -0.5312 0.1029
C47 C 0.42680(17) -0.4992(5) 0.0175(2)
C48 C 0.43157(19) -0.5381(5) -0.0310(2)
H30 H 0.4137 -0.5034 -0.0662
C49 C 0.4628(2) -0.6285(6) -0.0274(3)
H31 H 0.4650 -0.6520 -0.0610
Zn1A Zn -0.242279(18) -0.02339(5) 0.36752(2)
Zn1B Zn -0.257721(18) -0.52339(5) 0.13248(2)
Zn1C Zn 0.257721(18) -0.52339(5) 0.36752(2)
Zn2D Zn 0.0000 0.88326(7) -0.2500
Zn2D_2 Zn 0.0000 0.88326(7) 0.7500
N1A N -0.21124(14) 0.0672(4) 0.44261(16)
N2A N -0.11761(14) 0.3363(4) 0.45355(17)
N3A N -0.0986(2) 0.3767(6) 0.3037(3)
N4A N -0.02738(14) 0.7604(4) 0.68352(16)
N4D N -0.02738(14) 0.2396(4) 0.18352(16)
N4E N 0.02738(14) 0.2396(4) 0.31648(16)
N5A N -0.27889(13) -0.1791(3) 0.36843(16)
N6A N -0.32799(13) -0.2295(4) 0.48832(16)
N7A N -0.27793(17) 0.0507(5) 0.6041(2)
N8A N -0.48989(19) -0.6844(5) 0.4798(3)
O1A O -0.20791(12) -0.1009(3) 0.33046(15)
O2A O -0.16221(15) 0.0603(4) 0.34521(18)
O3A O -0.04576(11) 0.0489(3) 0.27146(15)
O4A O -0.05634(13) -0.0633(4) 0.19531(16)
O5A O -0.17343(13) -0.4055(3) 0.14132(15)
O6A O -0.21928(12) -0.4052(3) 0.18599(14)
O6B O -0.28072(12) 0.0948(3) 0.31401(14)
O6C O 0.28072(12) 0.0948(3) 0.18599(14)
C1A C -0.17636(17) -0.0413(5) 0.3241(2)
C2A C -0.06574(16) -0.0369(5) 0.2359(2)
C3A C -0.18590(17) -0.3635(4) 0.1776(2)
C4A C -0.15648(15) -0.1037(4) 0.28718(18)
C5A C -0.11903(16) -0.0535(4) 0.28259(19)
H1A H -0.1043 0.0138 0.3055
C6A C -0.10310(15) -0.1021(4) 0.24436(19)
C7A C -0.12452(16) -0.2029(4) 0.21103(19)
H2A H -0.1139 -0.2354 0.1853
C8A C -0.16158(16) -0.2566(4) 0.21528(18)
C9A C -0.17763(15) -0.2059(4) 0.25327(18)
H3A H -0.2028 -0.2406 0.2561
C10A C -0.22629(19) 0.0583(5) 0.4840(2)
H4A H -0.2485 -0.0002 0.4797
C11A C -0.2107(2) 0.1304(5) 0.5323(2)
H5A H -0.2221 0.1214 0.5600
C12A C -0.17751(18) 0.2173(5) 0.5386(2)
H6A H -0.1660 0.2671 0.5710
C13A C -0.16135(17) 0.2299(4) 0.49652(19)
C14A C -0.17958(17) 0.1520(4) 0.4490(2)
H7A H -0.1691 0.1597 0.4204
C15A C -0.12730(17) 0.3257(4) 0.4995(2)
C16A C -0.10827(18) 0.4032(5) 0.5470(2)
H8A H -0.1152 0.3922 0.5784
C17A C -0.07910(17) 0.4961(4) 0.5467(2)
C18A C -0.06905(17) 0.5068(5) 0.5000(2)
H9A H -0.0489 0.5676 0.4993
C19A C -0.08875(17) 0.4274(5) 0.4536(2)
C20A C -0.1013(2) 0.3560(6) 0.3552(2)
H10A H -0.1157 0.2850 0.3604
C21A C -0.08234(18) 0.4419(5) 0.3996(2)
C22A C -0.0594(2) 0.5431(5) 0.3903(3)
H11A H -0.0455 0.5996 0.4198
C23A C -0.0566(2) 0.5619(6) 0.3403(3)
H12A H -0.0409 0.6303 0.3353
C24A C -0.0765(3) 0.4817(7) 0.2978(3)
H13A H -0.0753 0.4972 0.2628
C25A C -0.06034(19) 0.6823(5) 0.6787(2)
H14A H -0.0726 0.6869 0.7056
C26A C -0.0774(2) 0.5952(5) 0.6362(2)
H15A H -0.1001 0.5416 0.6353
C27A C -0.06074(16) 0.5870(4) 0.5948(2)
C28A C -0.02740(19) 0.6697(5) 0.5991(2)
H16A H -0.0153 0.6692 0.5720
C29A C -0.01192(18) 0.7532(5) 0.6434(2)
H17A H 0.0108 0.8080 0.6452
C30A C -0.28501(19) -0.2643(5) 0.3284(2)
H18A H -0.2715 -0.2530 0.3030
C31A C -0.3108(2) -0.3687(6) 0.3236(3)
H19A H -0.3145 -0.4273 0.2953
C32A C -0.3312(2) -0.3866(5) 0.3606(3)
H20A H -0.3488 -0.4570 0.3573
C33A C -0.32529(16) -0.2999(4) 0.40237(19)
C34A C -0.29945(18) -0.1974(5) 0.4032(2)
H21A H -0.2961 -0.1360 0.4303
C35A C -0.34469(17) -0.3117(4) 0.4452(2)
C36A C -0.37663(17) -0.3986(4) 0.4422(2)
H22A H -0.3872 -0.4545 0.4119
C37A C -0.39323(16) -0.4037(4) 0.4843(2)
C38A C -0.37617(17) -0.3172(5) 0.5282(2)
H23A H -0.3864 -0.3166 0.5571
C39A C -0.34374(17) -0.2311(4) 0.5293(2)
C40A C -0.29725(19) -0.0405(5) 0.5672(2)
H24A H -0.2927 -0.0412 0.5337
C41A C -0.32372(17) -0.1352(4) 0.5745(2)
C42A C -0.32961(19) -0.1320(5) 0.6249(2)
H25A H -0.3471 -0.1925 0.6322
C43A C -0.3096(2) -0.0389(5) 0.6643(2)
H26A H -0.3133 -0.0367 0.6984
C44A C -0.2845(2) 0.0497(6) 0.6526(3)
H27A H -0.2713 0.1123 0.6793
C45A C -0.4856(2) -0.6454(6) 0.4329(3)
H28A H -0.5041 -0.6819 0.3985
C46A C -0.4559(2) -0.5550(5) 0.4315(3)
H29A H -0.4551 -0.5312 0.3971
C47A C -0.42680(17) -0.4992(5) 0.4825(2)
C48A C -0.43157(19) -0.5381(5) 0.5310(2)
H30A H -0.4137 -0.5034 0.5662
C49A C -0.4628(2) -0.6285(6) 0.5274(3)
H31A H -0.4650 -0.6520 0.5610
O7 O 0.0225(3) 0.6850(7) 0.3096(4)
loop_
_geom_bond_atom_site_label_1
_geom_bond_atom_site_label_2
_geom_bond_site_symmetry_1
_geom_bond_site_symmetry_2
Zn1 N1 1_555 1_555
Zn2 O3 1_555 1_555
N1 C10 1_555 1_555
N2 C15 1_555 1_555
N3 C20 1_555 1_555
N4 C25 1_555 1_555
N5 Zn1 1_555 1_555
N6 C35 1_555 1_555
N7 C40 1_555 1_555
N8 C45 1_555 1_555
O1 Zn1 1_555 1_555
O2 C1 1_555 1_555
O3 C2 1_555 1_555
O4 C2 1_555 1_555
O5 C3 1_555 1_555
O6 C3 1_555 1_555
C1 O1 1_555 1_555
C2 C6 1_555 1_555
C3 C8 1_555 1_555
C4 C1 1_555 1_555
C5 C4 1_555 1_555
H1 C5 1_555 1_555
C6 C5 1_555 1_555
C7 C6 1_555 1_555
H2 C7 1_555 1_555
C8 C7 1_555 1_555
C9 C4 1_555 1_555
H3 C9 1_555 1_555
C10 H4 1_555 1_555
C11 C10 1_555 1_555
H5 C11 1_555 1_555
C12 C11 1_555 1_555
H6 C12 1_555 1_555
C13 C12 1_555 1_555
C14 N1 1_555 1_555
H7 C14 1_555 1_555
C15 C13 1_555 1_555
C16 C15 1_555 1_555
H8 C16 1_555 1_555
C17 C16 1_555 1_555
C18 C17 1_555 1_555
H9 C18 1_555 1_555
C19 N2 1_555 1_555
C20 H10 1_555 1_555
C21 C19 1_555 1_555
C22 C21 1_555 1_555
H11 C22 1_555 1_555
C23 C22 1_555 1_555
H12 C23 1_555 1_555
C24 N3 1_555 1_555
H13 C24 1_555 1_555
C25 H14 1_555 1_555
C26 C25 1_555 1_555
H15 C26 1_555 1_555
C27 C17 1_555 1_555
C28 C27 1_555 1_555
H16 C28 1_555 1_555
C29 N4 1_555 1_555
H17 C29 1_555 1_555
C30 N5 1_555 1_555
H18 C30 1_555 1_555
C31 C30 1_555 1_555
H19 C31 1_555 1_555
C32 C31 1_555 1_555
H20 C32 1_555 1_555
C33 C32 1_555 1_555
C34 N5 1_555 1_555
H21 C34 1_555 1_555
C35 C33 1_555 1_555
C36 C35 1_555 1_555
H22 C36 1_555 1_555
C37 C36 1_555 1_555
C38 C37 1_555 1_555
H23 C38 1_555 1_555
C39 N6 1_555 1_555
C40 H24 1_555 1_555
C41 C39 1_555 1_555
C42 C41 1_555 1_555
H25 C42 1_555 1_555
C43 C42 1_555 1_555
H26 C43 1_555 1_555
C44 N7 1_555 1_555
H27 C44 1_555 1_555
C45 H28 1_555 1_555
C46 C45 1_555 1_555
H29 C46 1_555 1_555
C47 C37 1_555 1_555
C48 C47 1_555 1_555
H30 C48 1_555 1_555
C49 N8 1_555 1_555
H31 C49 1_555 1_555
Zn1A N1A 1_555 1_555
Zn1B O6A 1_555 1_555
Zn1C O6 1_555 1_555
Zn2D N4 1_555 1_555
Zn2D_2 N4A 1_555 1_555
N1A C10A 1_555 1_555
N2A C15A 1_555 1_555
N3A C20A 1_555 1_555
N4A C25A 1_555 1_555
N4D Zn2 1_555 1_555
N4E Zn2 1_555 1_555
N5A Zn1A 1_555 1_555
N6A C35A 1_555 1_555
N7A C40A 1_555 1_555
N8A C45A 1_555 1_555
O1A Zn1A 1_555 1_555
O2A C1A 1_555 1_555
O3A Zn2 1_555 1_555
O4A C2A 1_555 1_555
O5A C3A 1_555 1_555
O6A C3A 1_555 1_555
O6B Zn1A 1_555 1_555
O6C Zn1 1_555 1_555
C1A O1A 1_555 1_555
C2A O3A 1_555 1_555
C3A C8A 1_555 1_555
C4A C1A 1_555 1_555
C5A C4A 1_555 1_555
H1A C5A 1_555 1_555
C6A C2A 1_555 1_555
C7A C6A 1_555 1_555
H2A C7A 1_555 1_555
C8A C7A 1_555 1_555
C9A C4A 1_555 1_555
H3A C9A 1_555 1_555
C10A H4A 1_555 1_555
C11A C10A 1_555 1_555
H5A C11A 1_555 1_555
C12A C11A 1_555 1_555
H6A C12A 1_555 1_555
C13A C12A 1_555 1_555
C14A N1A 1_555 1_555
H7A C14A 1_555 1_555
C15A C13A 1_555 1_555
C16A C15A 1_555 1_555
H8A C16A 1_555 1_555
C17A C16A 1_555 1_555
C18A C17A 1_555 1_555
H9A C18A 1_555 1_555
C19A N2A 1_555 1_555
C20A H10A 1_555 1_555
C21A C19A 1_555 1_555
C22A C21A 1_555 1_555
H11A C22A 1_555 1_555
C23A C22A 1_555 1_555
H12A C23A 1_555 1_555
C24A N3A 1_555 1_555
H13A C24A 1_555 1_555
C25A H14A 1_555 1_555
C26A C25A 1_555 1_555
H15A C26A 1_555 1_555
C27A C17A 1_555 1_555
C28A C27A 1_555 1_555
H16A C28A 1_555 1_555
C29A N4A 1_555 1_555
H17A C29A 1_555 1_555
C30A N5A 1_555 1_555
H18A C30A 1_555 1_555
C31A C30A 1_555 1_555
H19A C31A 1_555 1_555
C32A C31A 1_555 1_555
H20A C32A 1_555 1_555
C33A C32A 1_555 1_555
C34A N5A 1_555 1_555
H21A C34A 1_555 1_555
C35A C33A 1_555 1_555
C36A C35A 1_555 1_555
H22A C36A 1_555 1_555
C37A C36A 1_555 1_555
C38A C37A 1_555 1_555
H23A C38A 1_555 1_555
C39A N6A 1_555 1_555
C40A H24A 1_555 1_555
C41A C39A 1_555 1_555
C42A C41A 1_555 1_555
H25A C42A 1_555 1_555
C43A C42A 1_555 1_555
H26A C43A 1_555 1_555
C44A N7A 1_555 1_555
H27A C44A 1_555 1_555
C45A H28A 1_555 1_555
C46A C45A 1_555 1_555
H29A C46A 1_555 1_555
C47A C37A 1_555 1_555
C48A C47A 1_555 1_555
H30A C48A 1_555 1_555
C49A N8A 1_555 1_555
H31A C49A 1_555 1_555
C8 C9 1_555 1_555
C13 C14 1_555 1_555
C18 C19 1_555 1_555
C20 C21 1_555 1_555
C23 C24 1_555 1_555
C26 C27 1_555 1_555
C28 C29 1_555 1_555
C33 C34 1_555 1_555
C38 C39 1_555 1_555
C40 C41 1_555 1_555
C43 C44 1_555 1_555
C46 C47 1_555 1_555
C48 C49 1_555 1_555
C5A C6A 1_555 1_555
C8A C9A 1_555 1_555
C13A C14A 1_555 1_555
C18A C19A 1_555 1_555
C20A C21A 1_555 1_555
C23A C24A 1_555 1_555
C26A C27A 1_555 1_555
C28A C29A 1_555 1_555
C33A C34A 1_555 1_555
C38A C39A 1_555 1_555
C40A C41A 1_555 1_555
C43A C44A 1_555 1_555
C46A C47A 1_555 1_555
C48A C49A 1_555 1_555

#END
