
#######################################################################
#
#                 Cambridge Crystallographic Data Centre
#                                CCDC 
#
#######################################################################
#
# If this CIF has been generated from an entry in the Cambridge 
# Structural Database, then it will include bibliographic, chemical, 
# crystal, experimental, refinement or atomic coordinate data resulting 
# from the CCDC's data processing and validation procedures.
#
#######################################################################

data_YUDREV
_symmetry_cell_setting           monoclinic
_symmetry_space_group_name_H-M   'P 21'
_symmetry_Int_Tables_number      4
_space_group_name_Hall           'P 2yb'
loop_
_symmetry_equiv_pos_site_id
_symmetry_equiv_pos_as_xyz
1 x,y,z
2 -x,1/2+y,-z
_cell_length_a                   14.376(5)
_cell_length_b                   24.427(5)
_cell_length_c                   15.683(5)
_cell_angle_alpha                90
_cell_angle_beta                 105.188(5)
_cell_angle_gamma                90
_cell_volume                     5314.92
loop_
_atom_site_label
_atom_site_type_symbol
_atom_site_fract_x
_atom_site_fract_y
_atom_site_fract_z
Cu3 Cu -0.0119(4) 0.5091(3) 0.0098(4)
C1 C 0.203(4) 0.525(2) -0.113(3)
H1 H 0.2343 0.5440 -0.1490
C2 C 0.164(3) 0.4625(16) -0.027(2)
H2 H 0.1654 0.4296 0.0026
C25 C 0.408(3) 0.4854(15) -0.038(2)
C26 C 0.321(3) 0.4494(18) -0.064(3)
H25 H 0.3184 0.4328 -0.1208
H26 H 0.3264 0.4202 -0.0212
C27 C 0.548(3) 0.528(2) -0.053(3)
H27 H 0.5892 0.5353 -0.0891
C28 C 0.117(3) 0.5411(18) -0.091(3)
H28 H 0.0815 0.5723 -0.1120
C29 C 0.465(3) 0.4943(19) -0.083(2)
H29 H 0.4524 0.4785 -0.1385
C30 C -0.154(3) 0.485(2) 0.107(3)
H30 H -0.1208 0.4539 0.1314
C31 C 0.428(3) 0.505(2) 0.051(3)
H31 H 0.3886 0.4966 0.0874
C32 C 0.565(3) 0.5489(16) 0.029(3)
C33 C 0.658(3) 0.5847(19) 0.071(3)
H32 H 0.6586 0.6173 0.0356
H33 H 0.6585 0.5960 0.1302
C34 C 0.507(3) 0.5375(17) 0.082(3)
H34 H 0.5211 0.5515 0.1393
C35 C -0.235(3) 0.5020(19) 0.122(4)
H35 H -0.2709 0.4856 0.1561
C36 C -0.187(4) 0.561(2) 0.028(3)
H36 H -0.1875 0.5907 -0.0100
N1 N -0.122(3) 0.5207(16) 0.047(2)
N10 N 0.095(2) 0.5039(13) -0.036(2)
N11 N 0.229(2) 0.4791(13) -0.071(2)
N16 N -0.253(3) 0.5504(14) 0.074(3)
N16_2 N 0.747(3) 0.5504(14) 0.074(3)
C33_2 C -0.342(3) 0.5847(19) 0.071(3)
C41 C 0.687(4) 0.271(3) 0.545(3)
H41 H 0.6896 0.2357 0.5753
H42 H 0.6223 0.2851 0.5363
C44 C 0.980(3) 0.414(2) 0.755(3)
H45 H 0.9677 0.4281 0.8086
H46 H 1.0373 0.3910 0.7720
C45 C 0.962(3) 0.5081(15) 0.701(3)
H47 H 0.9141 0.5200 0.7263
C46 C 1.049(3) 0.4577(17) 0.645(3)
H48 H 1.0722 0.4256 0.6258
C47 C 1.062(3) 0.5063(17) 0.615(3)
H49 H 1.0983 0.5169 0.5770
C48 C 0.917(2) 0.325(2) 0.707(3)
H50 H 0.9757 0.3109 0.7405
C49 C 0.849(3) 0.2903(13) 0.655(3)
H51 H 0.8608 0.2530 0.6544
C50 C 0.762(3) 0.3115(16) 0.605(2)
C51 C 0.744(2) 0.3673(17) 0.607(2)
H52 H 0.6854 0.3814 0.5732
C52 C 0.812(3) 0.4020(13) 0.658(3)
H53 H 0.8002 0.4394 0.6593
C53 C 0.899(3) 0.3809(18) 0.708(2)
C54 C 0.667(4) 0.295(2) 0.388(4)
H54 H 0.6273 0.3249 0.3864
C55 C 0.699(4) 0.275(2) 0.322(3)
H55 H 0.6912 0.2914 0.2672
C56 C 0.739(5) 0.219(3) 0.431(4)
H56 H 0.7568 0.1862 0.4621
N12 N 1.000(2) 0.4591(13) 0.7038(18)
N13 N 1.010(3) 0.536(2) 0.655(3)
N14 N 0.743(3) 0.230(2) 0.345(3)
N15 N 0.706(3) 0.2617(19) 0.458(2)
W1 W 1.01976(10) 0.18609(6) 0.45442(9)
W2 W 0.92794(9) 0.19183(5) 0.20629(9)
W3 W 1.23999(10) 0.11885(5) 0.42994(9)
W4 W 1.34028(10) 0.20184(6) 0.17047(9)
W5 W 0.99402(10) 0.20220(6) -0.00586(9)
W6 W 1.12519(10) 0.41221(5) 0.20651(9)
W7 W 1.41654(11) 0.34557(6) 0.42900(9)
W8 W 1.14978(10) 0.12586(5) 0.18276(9)
W9 W 1.00629(11) 0.32303(6) 0.46334(9)
W10 W 1.32636(10) 0.35135(6) 0.18174(9)
W11 W 1.43035(10) 0.19531(5) 0.41820(9)
W12 W 1.18593(10) 0.27892(6) -0.01817(8)
W13 W 0.91511(10) 0.32843(6) 0.21618(9)
W14 W 1.23989(12) 0.18463(6) 0.64287(9)
W15 W 1.42818(10) 0.26295(6) 0.62887(8)
W16 W 1.21590(11) 0.40590(5) 0.45395(9)
W17 W 1.22489(12) 0.32241(6) 0.65388(9)
W18 W 0.98294(11) 0.33997(6) 0.00506(9)
P1 P 1.2235(5) 0.2619(3) 0.4479(4)
P2 P 1.1278(5) 0.2692(3) 0.1877(4)
Cu1 Cu 0.6265(6) 0.3906(3) 0.1586(4)
Cu2 Cu 0.6408(6) 0.1435(3) 0.1437(4)
C3 C 0.479(4) -0.157(2) 0.013(4)
H3 H 0.5355 -0.1651 -0.0019
C4 C 0.568(3) 0.4473(18) 0.290(3)
H4 H 0.5053 0.4475 0.2553
C5 C 0.319(4) -0.129(2) 0.161(3)
H5 H 0.2534 -0.1166 0.1359
H6 H 0.3157 -0.1628 0.1939
C6 C 0.375(3) -0.087(2) 0.222(4)
C7 C 0.458(3) -0.1615(19) 0.089(3)
H7 H 0.4987 -0.1768 0.1398
C8 C 0.719(4) 0.432(2) 0.331(4)
H8 H 0.7814 0.4227 0.3296
C9 C 0.651(3) 0.109(2) -0.232(3)
C10 C 0.570(5) 0.191(3) -0.112(5)
H9 H 0.5308 0.2062 -0.1640
C11 C 0.506(4) 0.088(2) -0.351(3)
H10 H 0.4446 0.0981 -0.3851
C12 C 0.698(4) 0.150(3) -0.024(4)
H11 H 0.7564 0.1325 -0.0038
C13 C 0.705(4) 0.156(2) -0.169(4)
H12 H 0.7714 0.1453 -0.1438
H13 H 0.7046 0.1892 -0.2030
C14 C 0.569(3) 0.132(2) -0.292(3)
H14 H 0.5540 0.1694 -0.2957
C15 C 0.673(3) 0.055(2) -0.234(3)
H15 H 0.7236 0.0413 -0.1900
C16 C 0.566(4) 0.099(2) 0.278(3)
H16 H 0.5029 0.1096 0.2510
C17 C 0.687(4) 0.057(2) 0.361(3)
H17 H 0.7235 0.0343 0.4053
C18 C 0.554(3) 0.190(2) -0.025(3)
H18 H 0.4993 0.2019 -0.0092
C19 C 0.722(4) 0.080(2) 0.308(3)
H19 H 0.7849 0.0779 0.3034
C20 C 0.460(3) -0.0019(14) -0.418(3)
H20 H 0.4203 0.0197 -0.4659
H21 H 0.4931 -0.0296 -0.4441
C21 C 0.534(4) 0.0348(15) -0.357(3)
C22 C 0.691(3) 0.4595(18) 0.397(3)
H22 H 0.7310 0.4674 0.4525
C23 C 0.339(4) -0.130(2) 0.000(3)
H23 H 0.2755 -0.1194 -0.0244
C24 C 0.623(4) 0.022(3) -0.295(4)
H24 H 0.6488 -0.0123 -0.2981
C37 C 0.471(3) -0.005(2) 0.335(3)
C38 C 0.505(3) -0.0572(18) 0.343(3)
H37 H 0.5543 -0.0673 0.3921
C39 C 0.466(4) -0.097(2) 0.276(3)
H38 H 0.5009 -0.1276 0.2685
C40 C 0.524(4) 0.043(2) 0.387(4)
H39 H 0.4781 0.0722 0.3882
H40 H 0.5519 0.0317 0.4474
C42 C 0.391(3) 0.005(2) 0.278(3)
H43 H 0.3694 0.0415 0.2734
C43 C 0.334(4) -0.034(2) 0.222(3)
H44 H 0.2719 -0.0261 0.1879
O1 O 1.0826(16) 0.3318(9) -0.0526(15)
O2 O 1.2680(14) 0.1350(8) 0.1546(13)
O3 O 1.094(2) 0.3772(10) 0.4382(14)
O4 O 1.3703(19) 0.2043(10) 0.6805(13)
O5 O 1.0948(14) 0.2223(11) -0.0593(13)
O6 O 1.3588(18) 0.3109(9) 0.6917(14)
O7 O 0.9099(19) 0.3851(12) -0.0645(18)
O8 O 1.2447(18) 0.3765(9) 0.5704(16)
O9 O 1.2423(15) 0.4143(9) 0.1772(14)
O10 O 1.0859(17) 0.1550(11) 0.0674(14)
O11 O 1.1102(13) 0.2590(9) 0.4271(12)
O12 O 1.1935(13) 0.2192(9) 0.2091(14)
O13 O 1.0379(13) 0.2648(9) 0.2271(11)
O14 O 1.0883(13) 0.2714(9) 0.0841(12)
O15 O 1.2649(15) 0.2594(9) 0.5516(11)
O16 O 1.5439(18) 0.1753(9) 0.4313(15)
O17 O 0.9226(17) 0.3622(11) 0.4884(17)
O18 O 0.8169(15) 0.3679(10) 0.2064(16)
O19 O 1.3690(15) 0.3609(10) 0.3062(13)
O20 O 1.0924(19) 0.4795(9) 0.1900(15)
O21 O 0.8392(14) 0.1457(10) 0.1915(14)
O22 O 1.198(2) 0.4724(10) 0.4807(15)
O23 O 0.9297(17) 0.1596(10) -0.0813(16)
O24 O 1.4382(14) 0.2724(11) 0.4011(13)
O25 O 1.1328(17) 0.0583(11) 0.1568(16)
O26 O 1.2317(16) 0.1386(10) 0.7158(15)
O27 O 1.3620(16) 0.2776(10) 0.1966(12)
O28 O 1.2593(14) 0.3156(9) 0.4205(13)
O29 O 1.3849(13) 0.1867(8) 0.2941(13)
O30 O 0.9164(15) 0.3306(9) 0.0960(14)
O31 O 0.9605(18) 0.2520(10) 0.4820(15)
O32 O 1.0146(15) 0.3821(9) 0.2325(14)
O33 O 1.1134(14) 0.1864(8) 0.5694(12)
O34 O 0.9461(15) 0.3188(9) 0.3407(12)
O35 O 1.4375(16) 0.1841(10) 0.1404(14)
O36 O 1.434(2) 0.3188(9) 0.5490(17)
O37 O 1.5439(16) 0.2657(10) 0.6976(14)
O38 O 1.2639(14) 0.1430(9) 0.5514(13)
O39 O 1.4170(16) 0.3807(10) 0.1561(17)
O40 O 1.0393(18) 0.1474(9) 0.2172(15)
O41 O 0.9341(13) 0.2716(10) -0.0440(11)
O42 O 1.2119(15) 0.1181(9) 0.3056(13)
O43 O 1.3729(15) 0.1276(8) 0.4366(14)
O44 O 1.2543(16) 0.3304(9) 0.0660(13)
O45 O 1.1113(14) 0.1406(8) 0.4174(13)
O46 O 1.5260(18) 0.3714(9) 0.4440(15)
O47 O 1.2638(18) 0.2264(12) 0.0599(17)
O48 O 1.2394(17) 0.2840(11) -0.1009(13)
O49 O 1.206(3) 0.3614(10) 0.7329(14)
O50 O 1.4420(16) 0.2150(9) 0.5399(13)
O51 O 1.2663(15) 0.2142(9) 0.4112(14)
O52 O 1.1872(15) 0.4166(9) 0.3280(14)
O53 O 1.346(2) 0.4082(9) 0.4591(16)
O54 O 0.9420(18) 0.1402(11) 0.4763(19)
O55 O 0.8551(13) 0.2588(9) 0.1983(13)
O56 O 1.2288(18) 0.0507(9) 0.4477(17)
O57 O 1.2078(16) 0.2501(11) 0.6958(15)
O58 O 1.1843(17) 0.3216(9) 0.2174(14)
O59 O 0.9583(15) 0.1938(10) 0.3298(14)
O60 O 1.1015(18) 0.3199(9) 0.5813(14)
O61 O 0.9281(13) 0.1992(9) 0.0820(11)
O62 O 1.0641(19) 0.3875(9) 0.0855(16)
N2 N 0.635(3) 0.4232(19) 0.270(3)
N3 N 0.371(3) -0.1413(17) 0.084(2)
N4 N 0.630(4) 0.1673(16) 0.027(2)
N5 N 0.646(2) 0.1109(15) 0.2554(19)
N6 N 0.658(3) 0.1653(16) -0.101(3)
N7 N 0.598(3) 0.0655(15) 0.354(2)
N8 N 0.596(3) 0.4733(13) 0.369(2)
N9 N 0.607(3) 0.365(2) 0.041(3)
N9A N 0.393(3) -0.135(2) -0.041(3)
N8A N 0.404(3) -0.0267(13) -0.369(2)
C20A C 0.540(3) 0.4981(14) 0.418(3)
C3A C 0.521(4) 0.343(2) -0.013(4)
C23A C 0.661(4) 0.370(2) 0.000(3)
loop_
_geom_bond_atom_site_label_1
_geom_bond_atom_site_label_2
_geom_bond_site_symmetry_1
_geom_bond_site_symmetry_2
W1 O11 1_555 1_555
W2 O13 1_555 1_555
W3 O38 1_555 1_555
W4 O2 1_555 1_555
W5 O5 1_555 1_555
W6 O9 1_555 1_555
W7 O19 1_555 1_555
W8 O2 1_555 1_555
W9 O3 1_555 1_555
W10 O9 1_555 1_555
W11 O16 1_555 1_555
W12 O1 1_555 1_555
W13 O13 1_555 1_555
W14 O4 1_555 1_555
W15 O4 1_555 1_555
W16 O3 1_555 1_555
W17 O6 1_555 1_555
W18 O1 1_555 1_555
P1 O11 1_555 1_555
P2 O12 1_555 1_555
Cu1 O18 1_555 1_555
Cu2 O21 1_555 1_555
Cu3 N1 1_555 1_555
C1 H1 1_555 1_555
C2 H2 1_555 1_555
C3 H3 1_555 1_555
C4 H4 1_555 1_555
C5 H5 1_555 1_555
H6 C5 1_555 1_555
C6 C5 1_555 1_555
C7 C3 1_555 1_555
H7 C7 1_555 1_555
C8 H8 1_555 1_555
C9 C13 1_555 1_555
C10 H9 1_555 1_555
C11 H10 1_555 1_555
C12 H11 1_555 1_555
C13 H12 1_555 1_555
H13 C13 1_555 1_555
C14 C9 1_555 1_555
H14 C14 1_555 1_555
C15 C9 1_555 1_555
H15 C15 1_555 1_555
C16 H16 1_555 1_555
C17 H17 1_555 1_555
C18 C10 1_555 1_555
H18 C18 1_555 1_555
C19 C17 1_555 1_555
H19 C19 1_555 1_555
C20 H20 1_555 1_555
H21 C20 1_555 1_555
C21 C11 1_555 1_555
C22 C8 1_555 1_555
H22 C22 1_555 1_555
C23 H23 1_555 1_555
C24 C15 1_555 1_555
H24 C24 1_555 1_555
C25 C26 1_555 1_555
C26 H25 1_555 1_555
H26 C26 1_555 1_555
C27 H27 1_555 1_555
C28 C1 1_555 1_555
H28 C28 1_555 1_555
C29 C25 1_555 1_555
H29 C29 1_555 1_555
C30 H30 1_555 1_555
C31 C25 1_555 1_555
H31 C31 1_555 1_555
C32 C27 1_555 1_555
C33 C32 1_555 1_555
H32 C33 1_555 1_555
H33 C33 1_555 1_555
C34 C31 1_555 1_555
H34 C34 1_555 1_555
C35 C30 1_555 1_555
H35 C35 1_555 1_555
C36 H36 1_555 1_555
C37 C38 1_555 1_555
C38 H37 1_555 1_555
C39 C6 1_555 1_555
H38 C39 1_555 1_555
C40 C37 1_555 1_555
H39 C40 1_555 1_555
H40 C40 1_555 1_555
C41 H41 1_555 1_555
H42 C41 1_555 1_555
C42 C37 1_555 1_555
H43 C42 1_555 1_555
C43 C6 1_555 1_555
H44 C43 1_555 1_555
C44 H45 1_555 1_555
H46 C44 1_555 1_555
C45 H47 1_555 1_555
C46 H48 1_555 1_555
C47 C46 1_555 1_555
H49 C47 1_555 1_555
C48 H50 1_555 1_555
C49 C48 1_555 1_555
H51 C49 1_555 1_555
C50 C41 1_555 1_555
C51 C50 1_555 1_555
H52 C51 1_555 1_555
C52 C51 1_555 1_555
H53 C52 1_555 1_555
C53 C44 1_555 1_555
C54 H54 1_555 1_555
C55 C54 1_555 1_555
H55 C55 1_555 1_555
C56 H56 1_555 1_555
O5 W12 1_555 1_555
O6 W15 1_555 1_555
O7 W18 1_555 1_555
O8 W16 1_555 1_555
O10 W5 1_555 1_555
O11 W9 1_555 1_555
O12 W4 1_555 1_555
O13 P2 1_555 1_555
O14 W5 1_555 1_555
O15 W14 1_555 1_555
O17 W9 1_555 1_555
O18 W13 1_555 1_555
O19 W10 1_555 1_555
O20 W6 1_555 1_555
O21 W2 1_555 1_555
O22 W16 1_555 1_555
O23 W5 1_555 1_555
O24 W7 1_555 1_555
O25 W8 1_555 1_555
O26 W14 1_555 1_555
O27 W4 1_555 1_555
O28 W7 1_555 1_555
O29 W4 1_555 1_555
O30 W13 1_555 1_555
O31 W1 1_555 1_555
O32 W6 1_555 1_555
O33 W1 1_555 1_555
O34 W9 1_555 1_555
O35 W4 1_555 1_555
O36 W7 1_555 1_555
O37 W15 1_555 1_555
O38 W14 1_555 1_555
O39 W10 1_555 1_555
O40 W2 1_555 1_555
O41 W5 1_555 1_555
O42 W3 1_555 1_555
O43 W3 1_555 1_555
O44 W10 1_555 1_555
O45 W1 1_555 1_555
O46 W7 1_555 1_555
O47 W4 1_555 1_555
O48 W12 1_555 1_555
O49 W17 1_555 1_555
O50 W11 1_555 1_555
O51 W3 1_555 1_555
O52 W6 1_555 1_555
O53 W7 1_555 1_555
O54 W1 1_555 1_555
O55 W2 1_555 1_555
O56 W3 1_555 1_555
O57 W14 1_555 1_555
O58 W6 1_555 1_555
O59 W1 1_555 1_555
O60 W9 1_555 1_555
O61 W2 1_555 1_555
O62 W6 1_555 1_555
N1 C30 1_555 1_555
N2 Cu1 1_555 1_555
N3 C5 1_555 1_555
N4 Cu2 1_555 1_555
N5 Cu2 1_555 1_555
N6 C10 1_555 1_555
N7 C16 1_555 1_555
N8 C4 1_555 1_555
N9 Cu1 1_555 1_555
N10 Cu3 1_555 1_555
N11 C1 1_555 1_555
N12 C44 1_555 1_555
N13 C45 1_555 1_555
N14 C55 1_555 1_555
N15 C41 1_555 1_555
N16 C35 1_555 1_555
N9A C3 1_555 1_555
N8A C20 1_555 1_555
N16_2 C33 1_555 1_555
C20A N8 1_555 1_555
C3A N9 1_555 1_555
C23A N9 1_555 1_555
C33_2 N16 1_555 1_555
W2 O59 1_555 1_555
W3 O45 1_555 1_555
W5 O61 1_555 1_555
W8 O10 1_555 1_555
W8 O12 1_555 1_555
W8 O40 1_555 1_555
W8 O42 1_555 1_555
W9 O31 1_555 1_555
W10 O27 1_555 1_555
W10 O58 1_555 1_555
W11 O24 1_555 1_555
W11 O29 1_555 1_555
W11 O43 1_555 1_555
W11 O51 1_555 1_555
W12 O14 1_555 1_555
W12 O44 1_555 1_555
W12 O47 1_555 1_555
W13 O32 1_555 1_555
W13 O34 1_555 1_555
W13 O55 1_555 1_555
W14 O33 1_555 1_555
W15 O15 1_555 1_555
W15 O36 1_555 1_555
W15 O50 1_555 1_555
W16 O28 1_555 1_555
W16 O52 1_555 1_555
W16 O53 1_555 1_555
W17 O8 1_555 1_555
W17 O15 1_555 1_555
W17 O57 1_555 1_555
W17 O60 1_555 1_555
W18 O14 1_555 1_555
W18 O30 1_555 1_555
W18 O41 1_555 1_555
W18 O62 1_555 1_555
P1 O15 1_555 1_555
P1 O28 1_555 1_555
P1 O51 1_555 1_555
P2 O14 1_555 1_555
P2 O58 1_555 1_555
C2 N10 1_555 1_555
C2 N11 1_555 1_555
C4 N2 1_555 1_555
C7 N3 1_555 1_555
C8 N2 1_555 1_555
C11 C14 1_555 1_555
C12 N4 1_555 1_555
C12 N6 1_555 1_555
C13 N6 1_555 1_555
C16 N5 1_555 1_555
C17 N7 1_555 1_555
C18 N4 1_555 1_555
C19 N5 1_555 1_555
C20 C21 1_555 1_555
C21 C24 1_555 1_555
C22 N8 1_555 1_555
C23 N3 1_555 1_555
C23 N9A 1_555 1_555
C26 N11 1_555 1_555
C27 C29 1_555 1_555
C28 N10 1_555 1_555
C32 C34 1_555 1_555
C36 N1 1_555 1_555
C36 N16 1_555 1_555
C38 C39 1_555 1_555
C40 N7 1_555 1_555
C42 C43 1_555 1_555
C45 N12 1_555 1_555
C46 N12 1_555 1_555
C47 N13 1_555 1_555
C48 C53 1_555 1_555
C49 C50 1_555 1_555
C52 C53 1_555 1_555
C54 N15 1_555 1_555
C56 N14 1_555 1_555
C56 N15 1_555 1_555

#END
