
#######################################################################
#
#                 Cambridge Crystallographic Data Centre
#                                CCDC 
#
#######################################################################
#
# If this CIF has been generated from an entry in the Cambridge 
# Structural Database, then it will include bibliographic, chemical, 
# crystal, experimental, refinement or atomic coordinate data resulting 
# from the CCDC's data processing and validation procedures.
#
#######################################################################

data_YUFDEI
_symmetry_cell_setting           monoclinic
_symmetry_space_group_name_H-M   'P 21/c'
_symmetry_Int_Tables_number      14
_space_group_name_Hall           '-P 2ybc'
loop_
_symmetry_equiv_pos_site_id
_symmetry_equiv_pos_as_xyz
1 x,y,z
2 -x,1/2+y,1/2-z
3 -x,-y,-z
4 x,1/2-y,1/2+z
_cell_length_a                   11.164(4)
_cell_length_b                   12.340(8)
_cell_length_c                   17.069(3)
_cell_angle_alpha                90
_cell_angle_beta                 99.76(2)
_cell_angle_gamma                90
_cell_volume                     2317.46
loop_
_atom_site_label
_atom_site_type_symbol
_atom_site_fract_x
_atom_site_fract_y
_atom_site_fract_z
Cu1 Cu 0.34964(3) 0.23317(3) 0.67999(2)
O1 O 0.5013(2) 0.1941(2) 0.6465(1)
O2 O 0.3589(2) 0.3701(2) 0.6254(1)
O3 O 0.5704(2) -0.1826(2) 0.6865(1)
O4 O -0.0069(2) 0.5637(2) 0.6242(2)
N1 N 0.3339(2) 0.0907(2) 0.7280(2)
N2 N 0.1820(2) 0.2581(2) 0.6974(2)
N3 N 0.6600(2) -0.0472(2) 0.6254(2)
N4 N 0.1701(2) 0.5959(2) 0.5781(2)
C1 C 0.2853(3) 0.5430(2) 0.5727(2)
C2 C 0.6534(3) 0.0705(2) 0.6148(2)
C3 C 0.2725(3) 0.4378(2) 0.6169(2)
C4 C 0.5390(3) 0.0971(2) 0.6492(2)
C5 C 0.4953(3) 0.0042(2) 0.6802(2)
C6 C 0.1609(3) 0.4335(2) 0.6417(2)
C7 C 0.5746(3) -0.0860(2) 0.6670(2)
C8 C 0.0956(3) 0.5346(3) 0.6159(2)
C9 C 0.1152(3) 0.3442(3) 0.6804(2)
C10 C 0.3945(3) 0.0020(2) 0.7225(2)
C11 C 0.2394(3) 0.0989(3) 0.7776(2)
C12 C 0.1343(3) 0.1629(3) 0.7335(2)
C13 C 0.7615(3) 0.1272(3) 0.6650(3)
C14 C 0.3942(3) 0.6083(3) 0.6123(2)
C15 C 0.2959(4) 0.5166(3) 0.4861(2)
C16 C 0.6388(3) 0.1048(3) 0.5286(2)
C17 C 0.1238(4) 0.6941(3) 0.5338(3)
C18 C 0.7565(3) -0.1141(3) 0.6043(2)
C19 C 0.7229(5) -0.1736(4) 0.5271(3)
C20 C 0.1192(7) 0.7863(5) 0.5851(4)
C21 C 0.3650(3) -0.1021(3) 0.7609(2)
C22 C -0.0106(3) 0.3522(3) 0.7009(2)
H1 H 0.2710 0.1360 0.8250
H2 H 0.0900 0.1190 0.6930
H3 H 0.2140 0.0280 0.7900
H4 H 0.0820 0.1850 0.7690
H5 H 0.7550 0.2030 0.6570
H6 H 0.4670 0.5710 0.6070
H7 H 0.7610 0.1110 0.7190
H8 H 0.3940 0.6770 0.5880
H9 H 0.8350 0.1020 0.6500
H10 H 0.3900 0.6170 0.6670
H11 H 0.6350 0.1820 0.5250
H12 H 0.3720 0.4830 0.4840
H13 H 0.7060 0.0790 0.5060
H14 H 0.2320 0.4690 0.4650
H15 H 0.5660 0.0750 0.5000
H16 H 0.2900 0.5810 0.4560
H17 H 0.7790 -0.1660 0.6458
H18 H 0.0440 0.6800 0.5070
H19 H 0.8240 -0.0690 0.6010
H20 H 0.1750 0.7100 0.4960
H21 H 0.7890 -0.2160 0.5160
H22 H 0.0890 0.8490 0.5550
H23 H 0.6550 -0.2190 0.5300
H24 H 0.0680 0.7700 0.6230
H25 H 0.7010 -0.1220 0.4860
H26 H 0.1990 0.8000 0.6120
H27 H 0.4190 -0.1570 0.7500
H28 H -0.0450 0.4200 0.6840
H29 H 0.3730 -0.0920 0.8170
H30 H -0.0600 0.2960 0.6750
H31 H -0.0060 0.3450 0.7570
H32 H 0.2840 -0.1230 0.7400
O3A O 0.4296(2) 0.3174(2) 0.8135(1)
Cu1A Cu 0.65036(3) -0.26683(3) 0.82001(2)
loop_
_geom_bond_atom_site_label_1
_geom_bond_atom_site_label_2
_geom_bond_site_symmetry_1
_geom_bond_site_symmetry_2
Cu1 O1 1_555 1_555
O1 C4 1_555 1_555
O2 Cu1 1_555 1_555
O3 C7 1_555 1_555
O4 C8 1_555 1_555
N1 Cu1 1_555 1_555
N2 Cu1 1_555 1_555
N3 C2 1_555 1_555
N4 C1 1_555 1_555
C1 C3 1_555 1_555
C2 C4 1_555 1_555
C3 O2 1_555 1_555
C4 C5 1_555 1_555
C5 C7 1_555 1_555
C6 C3 1_555 1_555
C7 N3 1_555 1_555
C8 N4 1_555 1_555
C9 N2 1_555 1_555
C10 N1 1_555 1_555
C11 N1 1_555 1_555
C12 N2 1_555 1_555
C13 C2 1_555 1_555
C14 C1 1_555 1_555
C15 C1 1_555 1_555
C16 C2 1_555 1_555
C17 N4 1_555 1_555
C18 N3 1_555 1_555
C19 C18 1_555 1_555
C20 C17 1_555 1_555
C21 C10 1_555 1_555
C22 C9 1_555 1_555
H1 C11 1_555 1_555
H2 C12 1_555 1_555
H3 C11 1_555 1_555
H4 C12 1_555 1_555
H5 C13 1_555 1_555
H6 C14 1_555 1_555
H7 C13 1_555 1_555
H8 C14 1_555 1_555
H9 C13 1_555 1_555
H10 C14 1_555 1_555
H11 C16 1_555 1_555
H12 C15 1_555 1_555
H13 C16 1_555 1_555
H14 C15 1_555 1_555
H15 C16 1_555 1_555
H16 C15 1_555 1_555
H17 C18 1_555 1_555
H18 C17 1_555 1_555
H19 C18 1_555 1_555
H20 C17 1_555 1_555
H21 C19 1_555 1_555
H22 C20 1_555 1_555
H23 C19 1_555 1_555
H24 C20 1_555 1_555
H25 C19 1_555 1_555
H26 C20 1_555 1_555
H27 C21 1_555 1_555
H28 C22 1_555 1_555
H29 C21 1_555 1_555
H30 C22 1_555 1_555
H31 C22 1_555 1_555
H32 C21 1_555 1_555
O3A Cu1 1_555 1_555
Cu1A O3 1_555 1_555
C5 C10 1_555 1_555
C6 C8 1_555 1_555
C6 C9 1_555 1_555
C11 C12 1_555 1_555

#END
