
#######################################################################
#
#                 Cambridge Crystallographic Data Centre
#                                CCDC 
#
#######################################################################
#
# If this CIF has been generated from an entry in the Cambridge 
# Structural Database, then it will include bibliographic, chemical, 
# crystal, experimental, refinement or atomic coordinate data resulting 
# from the CCDC's data processing and validation procedures.
#
#######################################################################

data_YUGJUF
_symmetry_cell_setting           monoclinic
_symmetry_space_group_name_H-M   'P 21/n'
_symmetry_Int_Tables_number      14
_space_group_name_Hall           '-P 2yn'
loop_
_symmetry_equiv_pos_site_id
_symmetry_equiv_pos_as_xyz
1 x,y,z
2 1/2-x,1/2+y,1/2-z
3 -x,-y,-z
4 1/2+x,1/2-y,1/2+z
_cell_length_a                   13.816(3)
_cell_length_b                   16.611(6)
_cell_length_c                   22.262(4)
_cell_angle_alpha                90
_cell_angle_beta                 101.47(2)
_cell_angle_gamma                90
_cell_volume                     5007.04
loop_
_atom_site_label
_atom_site_type_symbol
_atom_site_fract_x
_atom_site_fract_y
_atom_site_fract_z
Ti1 Ti 0.11593(11) 0.03629(9) 0.02662(7)
Ti2 Ti 0.37546(10) 0.01249(8) 0.01329(6)
O1 O 0.0405(4) -0.0198(3) -0.0453(2)
O2 O 0.0927(4) 0.1469(3) 0.0234(3)
O3 O 0.3987(4) 0.0765(3) 0.0833(2)
O4 O 0.3624(4) -0.0969(3) 0.0329(2)
O5 O 0.2272(4) 0.0279(3) 0.0084(2)
O6 O 0.5000 0.0000 0.0000
N1 N 0.1293(5) -0.0832(4) 0.0659(3)
N2 N 0.1625(5) 0.0546(4) 0.1235(3)
N3 N 0.3590(4) 0.1234(4) -0.0364(3)
N4 N 0.3305(4) -0.0235(4) -0.0807(3)
C1 C 0.0810(6) -0.0831(5) -0.0701(4)
C2 C 0.0752(6) -0.0855(6) -0.1340(4)
C3 C 0.1076(7) -0.1525(6) -0.1602(4)
C4 C 0.1468(7) -0.2170(6) -0.1252(5)
C5 C 0.1547(6) -0.2139(6) -0.0620(5)
C6 C 0.1249(6) -0.1456(5) -0.0341(4)
C7 C 0.1389(7) -0.1463(5) 0.0327(4)
C8 C 0.1425(7) -0.0892(6) 0.1316(4)
C9 C 0.2057(6) -0.0166(6) 0.1579(45)
C10 C 0.1610(7) 0.1214(6) 0.1534(4)
C11 C 0.1250(6) 0.1995(5) 0.1248(4)
C12 C 0.1238(7) 0.2633(6) 0.1651(4)
C13 C 0.0927(8) 0.3385(6) 0.1436(5)
C14 C 0.0689(8) 0.3502(6) 0.0792(5)
C15 C 0.0675(6) 0.2879(5) 0.0390(4)
C16 C 0.0963(6) 0.2094(5) 0.0626(4)
C17 C 0.3837(6) 0.1525(5) 0.0982(4)
C18 C 0.3972(7) 0.1776(5) 0.1584(4)
C19 C 0.3834(7) 0.2572(6) 0.1740(4)
C20 C 0.2953(6) 0.0408(5) -0.1246(4)
C21 C 0.3469(6) -0.0938(5) -0.1001(4)
C22 C 0.3781(6) -0.1631(5) -0.0609(4)
C23 C 0.3951(6) -0.2360(5) -0.0908(4)
C24 C 0.4164(7) -0.3052(5) -0.0570(5)
C25 C 0.4212(6) -0.3052(5) 0.0066(5)
C26 C 0.4058(6) -0.2338(5) 0.0371(4)
C27 C 0.3817(6) -0.1619(5) 0.0032(4)
C28 C 0.3531(7) 0.3125(6) 0.1283(5)
C29 C 0.3369(6) 0.2910(5) 0.0684(4)
C30 C 0.3533(6) 0.2114(5) 0.0506(4)
C31 C 0.3465(6) 0.1943(5) -0.0128(4)
C32 C 0.3555(6) 0.1159(5) -0.1018(4)
H1 H 0.0251 -0.0360 -0.1623
H2 H 0.0949 -0.1417 -0.2108
H3 H 0.1749 -0.2675 -0.1440
H4 H 0.1832 -0.2551 -0.0448
H5 H 0.1650 -0.2041 0.0628
H6 H 0.0772 -0.0832 0.1450
H7 H 0.1809 -0.1351 0.1533
H8 H 0.2175 -0.0088 0.2037
H9 H 0.2576 -0.0303 0.1558
H10 H 0.1929 0.1222 0.2053
H11 H 0.1451 0.2468 0.2186
H12 H 0.1120 0.3976 0.1756
H13 H 0.0439 0.4104 0.0615
H14 H 0.0257 0.2990 -0.0051
H15 H 0.4222 0.1496 0.1960
H16 H 0.4029 0.2735 0.2098
H17 H 0.3397 0.3661 0.1365
H18 H 0.3148 0.3264 0.0388
H19 H 0.3278 0.2256 -0.0460
H20 H 0.4176 0.1159 -0.1048
H21 H 0.3210 0.1571 -0.1236
H22 H 0.3037 0.0239 -0.1650
H23 H 0.2377 0.0501 -0.1220
H24 H 0.3313 -0.1059 -0.1484
H25 H 0.3906 -0.2368 -0.1409
H26 H 0.4416 -0.3488 -0.0703
H27 H 0.4446 -0.3493 0.0351
H28 H 0.4183 -0.2302 0.0852
Ti1B Ti -0.11593(11) -0.03629(9) -0.02662(7)
O1B O -0.0405(4) 0.0198(3) 0.0453(2)
Ti2B Ti 0.62454(10) -0.01249(8) -0.01329(6)
O3B O 0.6013(4) -0.0765(3) -0.0833(2)
C17B C 0.6163(6) -0.1525(5) -0.0982(4)
C18B C 0.6028(7) -0.1776(5) -0.1584(4)
C19B C 0.6166(7) -0.2572(6) -0.1740(4)
C28B C 0.6469(7) -0.3125(6) -0.1283(5)
C29B C 0.6631(6) -0.2910(5) -0.0684(4)
C30B C 0.6467(6) -0.2114(5) -0.0506(4)
C31B C 0.6535(6) -0.1943(5) 0.0128(4)
N3B N 0.6410(4) -0.1234(4) 0.0364(3)
O4B O 0.6376(4) 0.0969(3) -0.0329(2)
C27B C 0.6183(6) 0.1619(5) -0.0032(4)
C22B C 0.6219(6) 0.1631(5) 0.0609(4)
C21B C 0.6531(6) 0.0938(5) 0.1001(4)
N4B N 0.6695(4) 0.0235(4) 0.0807(3)
O5B O 0.7728(4) -0.0279(3) -0.0084(2)
Ti1B_2 Ti 0.88407(11) -0.03629(9) -0.02662(7)
O1B_2 O 0.9595(4) 0.0198(3) 0.0453(2)
O1_2 O 1.0405(4) -0.0198(3) -0.0453(2)
O2B O 0.9073(4) -0.1469(3) -0.0234(3)
C16B C 0.9037(6) -0.2094(5) -0.0626(4)
C11B C 0.8750(6) -0.1995(5) -0.1248(4)
C10B C 0.8390(7) -0.1214(6) -0.1534(4)
N2B N 0.8375(5) -0.0546(4) -0.1235(3)
N1B N 0.8707(5) 0.0832(4) -0.0659(3)
C7B C 0.8611(7) 0.1463(5) -0.0327(4)
C6B C 0.8751(6) 0.1456(5) 0.0341(4)
C1B C 0.9190(6) 0.0831(5) 0.0701(4)
Ti1_2 Ti 1.11593(11) 0.03629(9) 0.02662(7)
C2B C 0.9248(6) 0.0855(6) 0.1340(4)
C3B C 0.8924(7) 0.1525(6) 0.1602(4)
C4B C 0.8532(7) 0.2170(6) 0.1252(5)
C5B C 0.8453(6) 0.2139(6) 0.0620(5)
H4B H 0.8168 0.2551 0.0448
H3B H 0.8251 0.2675 0.1440
H2B H 0.9051 0.1417 0.2108
H1B H 0.9749 0.0360 0.1623
H5B H 0.8350 0.2041 -0.0628
C8B C 0.8575(7) 0.0892(6) -0.1316(4)
C9B C 0.7943(6) 0.0166(6) -0.1579(45)
H8B H 0.7825 0.0088 -0.2037
H9B H 0.7424 0.0303 -0.1558
H6B H 0.9228 0.0832 -0.1450
H7B H 0.8191 0.1351 -0.1533
H10B H 0.8071 -0.1222 -0.2053
C12B C 0.8762(7) -0.2633(6) -0.1651(4)
C13B C 0.9073(8) -0.3385(6) -0.1436(5)
C14B C 0.9311(8) -0.3502(6) -0.0792(5)
C15B C 0.9325(6) -0.2879(5) -0.0390(4)
H14B H 0.9743 -0.2990 0.0051
H13B H 0.9561 -0.4104 -0.0615
H12B H 0.8880 -0.3976 -0.1756
H11B H 0.8549 -0.2468 -0.2186
C20B C 0.7047(6) -0.0408(5) 0.1246(4)
C32B C 0.6445(6) -0.1159(5) 0.1018(4)
H20B H 0.5824 -0.1159 0.1048
H21B H 0.6790 -0.1571 0.1236
H22B H 0.6963 -0.0239 0.1650
H23B H 0.7623 -0.0501 0.1220
H24B H 0.6687 0.1059 0.1484
C23B C 0.6049(6) 0.2360(5) 0.0908(4)
C24B C 0.5836(7) 0.3052(5) 0.0570(5)
C25B C 0.5788(6) 0.3052(5) -0.0066(5)
C26B C 0.5942(6) 0.2338(5) -0.0371(4)
H28B H 0.5817 0.2302 -0.0852
H27B H 0.5554 0.3493 -0.0351
H26B H 0.5584 0.3488 0.0703
H25B H 0.6094 0.2368 0.1409
H19B H 0.6722 -0.2256 0.0460
H18B H 0.6852 -0.3264 -0.0388
H17B H 0.6603 -0.3661 -0.1365
H16B H 0.5971 -0.2735 -0.2098
H15B H 0.5778 -0.1496 -0.1960
O7 O 0.1981(9) 0.5693(7) 0.2117(5)
C33 C 0.1439(11) 0.6057(9) 0.1695(7)
C34 C 0.0577(11) 0.5640(9) 0.1317(7)
C35 C 0.1717(16) 0.6817(13) 0.1505(10)
B1 B 0.7537(7) 0.5601(5) 0.1599(4)
C36 C 0.6411(3) 0.5613(3) 0.1796(2)
C37 C 0.6058(3) 0.4935(3) 0.2054(2)
C38 C 0.5096(3) 0.4926(3) 0.2159(2)
C39 C 0.4486(3) 0.5595(3) 0.2006(2)
C40 C 0.4839(3) 0.6272(3) 0.1748(2)
C41 C 0.5801(3) 0.6281(3) 0.1643(2)
C42 C 0.7381(4) 0.5247(3) 0.0868(2)
C43 C 0.6499(4) 0.5374(3) 0.0449(2)
C44 C 0.6408(4) 0.5122(3) -0.0157(2)
C45 C 0.7199(4) 0.4745(3) -0.0345(2)
C46 C 0.8081(4) 0.4618(3) 0.0073(2)
C47 C 0.8172(4) 0.4870(3) 0.0680(2)
C48 C 0.8351(3) 0.4991(3) 0.2066(2)
C49 C 0.8204(3) 0.4161(3) 0.2030(2)
C50 C 0.8873(3) 0.3646(3) 0.2394(2)
C51 C 0.9690(3) 0.3962(3) 0.2795(2)
C52 C 0.9838(3) 0.4793(3) 0.2832(2)
C53 C 0.9168(3) 0.5307(3) 0.2468(2)
C54 C 0.7987(4) 0.6550(2) 0.1632(2)
C55 C 0.8378(4) 0.6879(2) 0.1155(2)
C56 C 0.8810(4) 0.7641(2) 0.1219(2)
C57 C 0.8852(4) 0.8074(2) 0.1760(2)
C58 C 0.8461(4) 0.7745(2) 0.2237(2)
C59 C 0.8028(4) 0.6983(2) 0.2173(2)
H29 H 0.6467 0.4440 0.2172
H30 H 0.4972 0.4424 0.2361
H31 H 0.4024 0.5609 0.2008
H32 H 0.4430 0.6635 0.1649
H33 H 0.5900 0.6751 0.1456
H34 H 0.6019 0.5698 0.0586
H35 H 0.5883 0.5190 -0.0394
H36 H 0.7225 0.4661 -0.0734
H37 H 0.8433 0.4322 -0.0013
H38 H 0.8835 0.4700 0.0962
H39 H 0.7699 0.4051 0.1757
H40 H 0.8869 0.3104 0.2380
H41 H 1.0046 0.3670 0.2971
H42 H 1.0273 0.4991 0.3111
H43 H 0.9256 0.5931 0.2555
H44 H 0.8370 0.6660 0.0822
H45 H 0.9140 0.7873 0.0840
H46 H 0.9226 0.8459 0.1799
H47 H 0.8523 0.7949 0.2585
H48 H 0.7699 0.6833 0.2487
O8? O 0.1579(31) 0.6862(25) 0.1019(20)
C60? C 0.2330(32) 0.6702(26) 0.2018(21)
C61? C 0.0873(57) 0.6516(46) 0.1279(34)
C62? C 0.1326(49) 0.5403(42) 0.1596(30)
loop_
_geom_bond_atom_site_label_1
_geom_bond_atom_site_label_2
_geom_bond_site_symmetry_1
_geom_bond_site_symmetry_2
Ti1 O1 1_555 1_555
Ti2 O3 1_555 1_555
O1 C1 1_555 1_555
O2 Ti1 1_555 1_555
O3 C17 1_555 1_555
O4 Ti2 1_555 1_555
O5 Ti1 1_555 1_555
O6 Ti2 1_555 1_555
N1 Ti1 1_555 1_555
N2 Ti1 1_555 1_555
N3 Ti2 1_555 1_555
N4 Ti2 1_555 1_555
C1 C2 1_555 1_555
C2 C3 1_555 1_555
C3 C4 1_555 1_555
C4 C5 1_555 1_555
C5 C6 1_555 1_555
C6 C1 1_555 1_555
C7 N1 1_555 1_555
C8 N1 1_555 1_555
C9 N2 1_555 1_555
C10 N2 1_555 1_555
C11 C10 1_555 1_555
C12 C11 1_555 1_555
C13 C12 1_555 1_555
C14 C13 1_555 1_555
C15 C14 1_555 1_555
C16 O2 1_555 1_555
C17 C18 1_555 1_555
C18 C19 1_555 1_555
C19 C28 1_555 1_555
C20 N4 1_555 1_555
C21 N4 1_555 1_555
C22 C21 1_555 1_555
C23 C22 1_555 1_555
C24 C23 1_555 1_555
C25 C24 1_555 1_555
C26 C25 1_555 1_555
C27 O4 1_555 1_555
C28 C29 1_555 1_555
C29 C30 1_555 1_555
C30 C17 1_555 1_555
C31 N3 1_555 1_555
C32 N3 1_555 1_555
H1 C2 1_555 1_555
H2 C3 1_555 1_555
H3 C4 1_555 1_555
H4 C5 1_555 1_555
H5 C7 1_555 1_555
H6 C8 1_555 1_555
H7 C8 1_555 1_555
H8 C9 1_555 1_555
H9 C9 1_555 1_555
H10 C10 1_555 1_555
H11 C12 1_555 1_555
H12 C13 1_555 1_555
H13 C14 1_555 1_555
H14 C15 1_555 1_555
H15 C18 1_555 1_555
H16 C19 1_555 1_555
H17 C28 1_555 1_555
H18 C29 1_555 1_555
H19 C31 1_555 1_555
H20 C32 1_555 1_555
H21 C32 1_555 1_555
H22 C20 1_555 1_555
H23 C20 1_555 1_555
H24 C21 1_555 1_555
H25 C23 1_555 1_555
H26 C24 1_555 1_555
H27 C25 1_555 1_555
H28 C26 1_555 1_555
O7 C33 1_555 1_555
C33 C34 1_555 1_555
C35 C33 1_555 1_555
B1 C36 1_555 1_555
C36 C37 1_555 1_555
C37 C38 1_555 1_555
C38 C39 1_555 1_555
C39 C40 1_555 1_555
C40 C41 1_555 1_555
C41 C36 1_555 1_555
C42 B1 1_555 1_555
C43 C42 1_555 1_555
C44 C43 1_555 1_555
C45 C44 1_555 1_555
C46 C45 1_555 1_555
C47 C42 1_555 1_555
C48 B1 1_555 1_555
C49 C48 1_555 1_555
C50 C49 1_555 1_555
C51 C50 1_555 1_555
C52 C51 1_555 1_555
C53 C48 1_555 1_555
C54 B1 1_555 1_555
C55 C54 1_555 1_555
C56 C55 1_555 1_555
C57 C56 1_555 1_555
C58 C57 1_555 1_555
C59 C54 1_555 1_555
H29 C37 1_555 1_555
H30 C38 1_555 1_555
H31 C39 1_555 1_555
H32 C40 1_555 1_555
H33 C41 1_555 1_555
H34 C43 1_555 1_555
H35 C44 1_555 1_555
H36 C45 1_555 1_555
H37 C46 1_555 1_555
H38 C47 1_555 1_555
H39 C49 1_555 1_555
H40 C50 1_555 1_555
H41 C51 1_555 1_555
H42 C52 1_555 1_555
H43 C53 1_555 1_555
H44 C55 1_555 1_555
H45 C56 1_555 1_555
H46 C57 1_555 1_555
H47 C58 1_555 1_555
H48 C59 1_555 1_555
Ti1B O1 1_555 1_555
O1B Ti1 1_555 1_555
Ti2B O6 1_555 1_555
O3B Ti2B 1_555 1_555
C17B O3B 1_555 1_555
C18B C17B 1_555 1_555
C19B C18B 1_555 1_555
C28B C19B 1_555 1_555
C29B C28B 1_555 1_555
C30B C17B 1_555 1_555
C31B C30B 1_555 1_555
N3B Ti2B 1_555 1_555
O4B Ti2B 1_555 1_555
C27B O4B 1_555 1_555
C22B C27B 1_555 1_555
C21B C22B 1_555 1_555
N4B Ti2B 1_555 1_555
O5B Ti2B 1_555 1_555
Ti1B_2 O5B 1_555 1_555
O1B_2 Ti1B_2 1_555 1_555
O1_2 Ti1B_2 1_555 1_555
O2B Ti1B_2 1_555 1_555
C16B O2B 1_555 1_555
C11B C16B 1_555 1_555
C10B C11B 1_555 1_555
N2B Ti1B_2 1_555 1_555
N1B Ti1B_2 1_555 1_555
C7B N1B 1_555 1_555
C6B C7B 1_555 1_555
C1B O1B_2 1_555 1_555
Ti1_2 O1B_2 1_555 1_555
C2B C1B 1_555 1_555
C3B C2B 1_555 1_555
C4B C3B 1_555 1_555
C5B C6B 1_555 1_555
H4B C5B 1_555 1_555
H3B C4B 1_555 1_555
H2B C3B 1_555 1_555
H1B C2B 1_555 1_555
H5B C7B 1_555 1_555
C8B N1B 1_555 1_555
C9B N2B 1_555 1_555
H8B C9B 1_555 1_555
H9B C9B 1_555 1_555
H6B C8B 1_555 1_555
H7B C8B 1_555 1_555
H10B C10B 1_555 1_555
C12B C11B 1_555 1_555
C13B C12B 1_555 1_555
C14B C13B 1_555 1_555
C15B C16B 1_555 1_555
H14B C15B 1_555 1_555
H13B C14B 1_555 1_555
H12B C13B 1_555 1_555
H11B C12B 1_555 1_555
C20B N4B 1_555 1_555
C32B N3B 1_555 1_555
H20B C32B 1_555 1_555
H21B C32B 1_555 1_555
H22B C20B 1_555 1_555
H23B C20B 1_555 1_555
H24B C21B 1_555 1_555
C23B C22B 1_555 1_555
C24B C23B 1_555 1_555
C25B C24B 1_555 1_555
C26B C27B 1_555 1_555
H28B C26B 1_555 1_555
H27B C25B 1_555 1_555
H26B C24B 1_555 1_555
H25B C23B 1_555 1_555
H19B C31B 1_555 1_555
H18B C29B 1_555 1_555
H17B C28B 1_555 1_555
H16B C19B 1_555 1_555
H15B C18B 1_555 1_555
Ti2 O5 1_555 1_555
C6 C7 1_555 1_555
C8 C9 1_555 1_555
C11 C16 1_555 1_555
C15 C16 1_555 1_555
C20 C32 1_555 1_555
C22 C27 1_555 1_555
C26 C27 1_555 1_555
C30 C31 1_555 1_555
C46 C47 1_555 1_555
C52 C53 1_555 1_555
C58 C59 1_555 1_555
Ti1B O1B 1_555 1_555
C29B C30B 1_555 1_555
C31B N3B 1_555 1_555
C21B N4B 1_555 1_555
O1_2 Ti1_2 1_555 1_555
C10B N2B 1_555 1_555
C6B C1B 1_555 1_555
C4B C5B 1_555 1_555
C8B C9B 1_555 1_555
C14B C15B 1_555 1_555
C20B C32B 1_555 1_555
C25B C26B 1_555 1_555

#END
