
#######################################################################
#
#                 Cambridge Crystallographic Data Centre
#                                CCDC 
#
#######################################################################
#
# If this CIF has been generated from an entry in the Cambridge 
# Structural Database, then it will include bibliographic, chemical, 
# crystal, experimental, refinement or atomic coordinate data resulting 
# from the CCDC's data processing and validation procedures.
#
#######################################################################

data_YUHBAF
_symmetry_cell_setting           monoclinic
_symmetry_space_group_name_H-M   'C c'
_symmetry_Int_Tables_number      9
_space_group_name_Hall           'C -2yc'
loop_
_symmetry_equiv_pos_site_id
_symmetry_equiv_pos_as_xyz
1 x,y,z
2 x,-y,1/2+z
3 1/2+x,1/2+y,z
4 1/2+x,1/2-y,1/2+z
_cell_length_a                   10.2331(2)
_cell_length_b                   18.6257(5)
_cell_length_c                   21.2873(6)
_cell_angle_alpha                90
_cell_angle_beta                 95.719(2)
_cell_angle_gamma                90
_cell_volume                     4037.14
loop_
_atom_site_label
_atom_site_type_symbol
_atom_site_fract_x
_atom_site_fract_y
_atom_site_fract_z
W1 W 0.32511(2) 0.528536(15) 0.004831(19)
C1 C 0.2665(7) 0.5371(4) 0.1001(4)
N1 N 0.2321(6) 0.5438(3) 0.1502(3)
C2 C 0.4902(8) 0.5690(5) 0.0625(4)
N2 N 0.5782(8) 0.5920(6) 0.0942(4)
C3 C 0.3093(9) 0.4201(6) 0.0411(4)
N3 N 0.3049(9) 0.3629(5) 0.0577(5)
C4 C 0.4935(8) 0.4651(5) -0.0161(5)
N4 N 0.5816(7) 0.4328(4) -0.0274(4)
C5 C 0.4190(8) 0.5862(4) -0.0663(4)
N5 N 0.4727(8) 0.6161(4) -0.1026(4)
C6 C 0.2738(7) 0.4751(4) -0.0849(4)
N6 N 0.2469(6) 0.4475(3) -0.1316(3)
N7 N 0.1075(6) 0.5241(4) -0.0074(3)
C7 C 0.0372(8) 0.4651(5) -0.0209(4)
H1 H 0.0811 0.4227 -0.0282
C8 C -0.0976(9) 0.4642(6) -0.0246(5)
H2 H -0.1433 0.4217 -0.0335
C9 C -0.1642(10) 0.5265(6) -0.0151(5)
H3 H -0.2554 0.5271 -0.0183
C10 C -0.0940(8) 0.5873(6) -0.0009(4)
H4 H -0.1381 0.6296 0.0067
C11 C 0.0442(8) 0.5875(5) 0.0025(4)
C12 C 0.1237(9) 0.6493(5) 0.0148(4)
C13 C 0.0749(10) 0.7172(6) 0.0270(4)
H5 H -0.0149 0.7225 0.0294
C14 C 0.1522(13) 0.7752(6) 0.0354(5)
H6 H 0.1177 0.8199 0.0442
C15 C 0.2850(12) 0.7664(6) 0.0305(4)
H7 H 0.3415 0.8056 0.0345
C16 C 0.3333(14) 0.6973(5) 0.0192(4)
H8 H 0.4228 0.6911 0.0167
N8 N 0.2543(7) 0.6408(3) 0.0122(3)
Mn1 Mn 0.22158(15) 0.55442(8) 0.25910(8)
N9 N 0.2833(6) 0.4516(4) 0.2645(3)
C17 C 0.4095(10) 0.4280(6) 0.2396(6)
H9 H 0.4449 0.3880 0.2651
H10 H 0.3887 0.4104 0.1969
C18 C 0.5149(8) 0.4839(5) 0.2386(5)
H11 H 0.5108 0.5037 0.1963
H12 H 0.5994 0.4604 0.2470
C19 C 0.5094(8) 0.5464(5) 0.2851(4)
H13 H 0.4946 0.5282 0.3266
H14 H 0.5919 0.5724 0.2887
N10 N 0.4020(6) 0.5942(4) 0.2618(4)
C20 C 0.4302(7) 0.6573(4) 0.2410(4)
H15 H 0.5190 0.6682 0.2414
C21 C 0.3396(7) 0.7120(4) 0.2176(4)
C22 C 0.3873(8) 0.7778(4) 0.1896(4)
C23 C 0.5188(9) 0.7859(5) 0.1770(4)
H16 H 0.5789 0.7490 0.1861
C24 C 0.5578(11) 0.8497(6) 0.1509(5)
H17 H 0.6446 0.8551 0.1423
C25 C 0.4705(12) 0.9054(6) 0.1374(4)
H18 H 0.4992 0.9483 0.1211
C26 C 0.3439(11) 0.8974(5) 0.1477(4)
H19 H 0.2854 0.9348 0.1375
C27 C 0.2978(9) 0.8340(4) 0.1736(4)
C28 C 0.1660(10) 0.8251(5) 0.1834(5)
H20 H 0.1071 0.8621 0.1724
C29 C 0.1211(9) 0.7636(4) 0.2087(4)
H21 H 0.0328 0.7600 0.2151
C30 C 0.2071(7) 0.7043(4) 0.2255(4)
O1 O 0.1543(5) 0.6484(3) 0.2491(3)
O2 O 0.0475(5) 0.5220(3) 0.2623(3)
C31 C 0.0078(7) 0.4646(4) 0.2923(4)
C32 C -0.1240(7) 0.4665(5) 0.3084(4)
H22 H -0.1743 0.5077 0.3007
C33 C -0.1751(9) 0.4094(6) 0.3345(5)
H23 H -0.2622 0.4109 0.3435
C34 C -0.0997(8) 0.3456(5) 0.3490(4)
C35 C -0.1586(10) 0.2870(5) 0.3777(4)
H24 H -0.2452 0.2904 0.3871
C36 C -0.0892(12) 0.2254(6) 0.3916(5)
H25 H -0.1285 0.1861 0.4089
C37 C 0.0417(12) 0.2230(5) 0.3793(5)
H26 H 0.0896 0.1812 0.3887
C38 C 0.1036(9) 0.2810(5) 0.3533(4)
H27 H 0.1920 0.2782 0.3469
C39 C 0.0312(8) 0.3444(4) 0.3366(4)
C40 C 0.0875(7) 0.4057(4) 0.3073(4)
C41 C 0.2161(7) 0.4022(4) 0.2871(4)
H28 H 0.2565 0.3574 0.2910
N6A N 0.2469(6) 0.5525(3) 0.3684(3)
Mn1A Mn 0.22158(15) 0.44558(8) -0.24090(8)
C42 C 0.3788(13) 0.8866(8) 0.6617(7)
H29 H 0.4407 0.8550 0.6449
H30 H 0.4229 0.9296 0.6771
H31 H 0.3106 0.8987 0.6291
C43 C 0.3263(11) 0.8541(9) 0.7090(8)
N11 N 0.2821(12) 0.8203(12) 0.7476(9)
O3 O -0.0025(17) 0.6975(8) 0.3763(9)
O4 O 0.2139(12) 0.7813(5) 0.5345(8)
O5? O 0.0357(14) 0.7007(8) 0.4432(9)
loop_
_geom_bond_atom_site_label_1
_geom_bond_atom_site_label_2
_geom_bond_site_symmetry_1
_geom_bond_site_symmetry_2
W1 C1 1_555 1_555
C1 N1 1_555 1_555
N1 Mn1 1_555 1_555
C2 W1 1_555 1_555
N2 C2 1_555 1_555
C3 W1 1_555 1_555
N3 C3 1_555 1_555
C4 W1 1_555 1_555
N4 C4 1_555 1_555
C5 W1 1_555 1_555
N5 C5 1_555 1_555
C6 W1 1_555 1_555
N6 C6 1_555 1_555
N7 W1 1_555 1_555
C7 N7 1_555 1_555
H1 C7 1_555 1_555
C8 C7 1_555 1_555
H2 C8 1_555 1_555
C9 C8 1_555 1_555
H3 C9 1_555 1_555
C10 C9 1_555 1_555
H4 C10 1_555 1_555
C11 N7 1_555 1_555
C12 C11 1_555 1_555
C13 C12 1_555 1_555
H5 C13 1_555 1_555
C14 C13 1_555 1_555
H6 C14 1_555 1_555
C15 C14 1_555 1_555
H7 C15 1_555 1_555
C16 C15 1_555 1_555
H8 C16 1_555 1_555
N8 W1 1_555 1_555
Mn1 N9 1_555 1_555
N9 C17 1_555 1_555
C17 H9 1_555 1_555
H10 C17 1_555 1_555
C18 C17 1_555 1_555
H11 C18 1_555 1_555
H12 C18 1_555 1_555
C19 C18 1_555 1_555
H13 C19 1_555 1_555
H14 C19 1_555 1_555
N10 Mn1 1_555 1_555
C20 N10 1_555 1_555
H15 C20 1_555 1_555
C21 C20 1_555 1_555
C22 C21 1_555 1_555
C23 C22 1_555 1_555
H16 C23 1_555 1_555
C24 C23 1_555 1_555
H17 C24 1_555 1_555
C25 C24 1_555 1_555
H18 C25 1_555 1_555
C26 C25 1_555 1_555
H19 C26 1_555 1_555
C27 C22 1_555 1_555
C28 C27 1_555 1_555
H20 C28 1_555 1_555
C29 C28 1_555 1_555
H21 C29 1_555 1_555
C30 C21 1_555 1_555
O1 Mn1 1_555 1_555
O2 Mn1 1_555 1_555
C31 O2 1_555 1_555
C32 C31 1_555 1_555
H22 C32 1_555 1_555
C33 C32 1_555 1_555
H23 C33 1_555 1_555
C34 C33 1_555 1_555
C35 C34 1_555 1_555
H24 C35 1_555 1_555
C36 C35 1_555 1_555
H25 C36 1_555 1_555
C37 C36 1_555 1_555
H26 C37 1_555 1_555
C38 C37 1_555 1_555
H27 C38 1_555 1_555
C39 C34 1_555 1_555
C40 C31 1_555 1_555
C41 N9 1_555 1_555
H28 C41 1_555 1_555
C42 H29 1_555 1_555
H30 C42 1_555 1_555
H31 C42 1_555 1_555
C43 C42 1_555 1_555
N11 C43 1_555 1_555
N6A Mn1 1_555 1_555
Mn1A N6 1_555 1_555
C10 C11 1_555 1_555
C12 N8 1_555 1_555
C16 N8 1_555 1_555
C19 N10 1_555 1_555
C26 C27 1_555 1_555
C29 C30 1_555 1_555
C30 O1 1_555 1_555
C38 C39 1_555 1_555
C39 C40 1_555 1_555
C40 C41 1_555 1_555

#END
