
#######################################################################
#
#                 Cambridge Crystallographic Data Centre
#                                CCDC 
#
#######################################################################
#
# If this CIF has been generated from an entry in the Cambridge 
# Structural Database, then it will include bibliographic, chemical, 
# crystal, experimental, refinement or atomic coordinate data resulting 
# from the CCDC's data processing and validation procedures.
#
#######################################################################

data_YUHBEJ
_symmetry_cell_setting           orthorhombic
_symmetry_space_group_name_H-M   'P 21 21 21'
_symmetry_Int_Tables_number      19
_space_group_name_Hall           'P 2ac 2ab'
loop_
_symmetry_equiv_pos_site_id
_symmetry_equiv_pos_as_xyz
1 x,y,z
2 1/2-x,-y,1/2+z
3 -x,1/2+y,1/2-z
4 1/2+x,1/2-y,-z
_cell_length_a                   10.8251(12)
_cell_length_b                   17.1407(18)
_cell_length_c                   20.615(2)
_cell_angle_alpha                90
_cell_angle_beta                 90
_cell_angle_gamma                90
_cell_volume                     3825.11
loop_
_atom_site_label
_atom_site_type_symbol
_atom_site_fract_x
_atom_site_fract_y
_atom_site_fract_z
W1 W 0.00705(4) 0.112849(19) 0.831729(17)
C1 C 0.1950(12) 0.0702(6) 0.8188(6)
N1 N 0.2936(10) 0.0483(5) 0.8129(4)
C2 C 0.0799(10) 0.1697(6) 0.7478(5)
N2 N 0.1232(10) 0.1998(5) 0.7022(5)
C3 C 0.1354(10) 0.1976(6) 0.8718(5)
N3 N 0.2068(11) 0.2399(6) 0.8912(6)
C4 C -0.1209(10) 0.1980(6) 0.7945(6)
N4 N -0.1858(11) 0.2413(6) 0.7704(5)
C5 C -0.0617(10) 0.1607(6) 0.9211(5)
N5 N -0.1009(11) 0.1885(5) 0.9676(5)
C6 C -0.1792(10) 0.0717(6) 0.8442(5)
N6 N -0.2781(8) 0.0475(5) 0.8472(4)
N7 N 0.0266(8) 0.0041(4) 0.8873(4)
C7 C 0.0487(9) 0.0000(6) 0.9529(5)
H1 H 0.0604 0.0470 0.9765
C8 C 0.0545(10) -0.0691(6) 0.9848(6)
H2 H 0.0664 -0.0694 1.0305
C9 C 0.0430(11) -0.1397(7) 0.9516(6)
H3 H 0.0487 -0.1884 0.9735
C10 C 0.0228(12) -0.1358(6) 0.8843(6)
H4 H 0.0139 -0.1823 0.8597
C11 C 0.0159(12) -0.0640(5) 0.8540(5)
C12 C -0.0133(13) -0.0555(5) 0.7840(5)
C13 C -0.0250(10) -0.1172(6) 0.7415(5)
H5 H -0.0193 -0.1692 0.7572
C14 C -0.0450(9) -0.1040(7) 0.6768(6)
H6 H -0.0511 -0.1466 0.6474
C15 C -0.0559(9) -0.0293(5) 0.6551(5)
H7 H -0.0721 -0.0195 0.6105
C16 C -0.0435(9) 0.0317(6) 0.6972(5)
H8 H -0.0503 0.0836 0.6814
N8 N -0.0214(8) 0.0195(4) 0.7618(4)
Mn1 Mn 0.50753(17) 0.04394(6) 0.82996(7)
N9 N 0.4812(8) 0.1258(4) 0.8950(3)
C17 C 0.5276(9) 0.2040(5) 0.8731(4)
H9 H 0.6184 0.2077 0.8783
H10 H 0.4882 0.2466 0.8981
C18 C 0.4905(15) 0.2080(5) 0.8005(4)
H11 H 0.4000 0.2143 0.7960
H12 H 0.5317 0.2526 0.7789
N10 N 0.5308(7) 0.1340(4) 0.7717(3)
C19 C 0.5729(9) 0.1318(6) 0.7132(5)
H13 H 0.5792 0.1800 0.6906
C20 C 0.6113(10) 0.0621(5) 0.6791(5)
C21 C 0.6623(9) 0.0685(6) 0.6148(5)
C22 C 0.7028(12) 0.1421(7) 0.5886(5)
H14 H 0.6947 0.1884 0.6135
C23 C 0.7532(11) 0.1450(7) 0.5274(6)
H15 H 0.7758 0.1940 0.5095
C24 C 0.7720(10) 0.0774(7) 0.4910(6)
H16 H 0.8058 0.0807 0.4486
C25 C 0.7420(10) 0.0075(6) 0.5162(5)
H17 H 0.7600 -0.0386 0.4925
C26 C 0.6843(11) 0.0016(7) 0.5772(5)
C27 C 0.6537(10) -0.0740(6) 0.6034(5)
H18 H 0.6652 -0.1197 0.5782
C28 C 0.6081(11) -0.0789(6) 0.6649(6)
H19 H 0.5947 -0.1292 0.6830
C29 C 0.5797(10) -0.0124(6) 0.7031(5)
O1 O 0.5342(6) -0.0259(3) 0.7613(3)
O2 O 0.4779(7) -0.0340(3) 0.8927(3)
C30 C 0.4293(9) -0.0267(6) 0.9491(5)
C31 C 0.4061(11) -0.0982(6) 0.9838(5)
H20 H 0.4311 -0.1465 0.9656
C32 C 0.3483(9) -0.0970(6) 1.0430(5)
H21 H 0.3319 -0.1451 1.0641
C33 C 0.3124(11) -0.0274(6) 1.0734(6)
C34 C 0.2510(10) -0.0260(6) 1.1337(5)
H22 H 0.2346 -0.0742 1.1547
C35 C 0.2150(11) 0.0397(7) 1.1628(6)
H23 H 0.1779 0.0384 1.2045
C36 C 0.2329(9) 0.1110(7) 1.1304(5)
H24 H 0.2097 0.1582 1.1512
C37 C 0.2827(10) 0.1139(8) 1.0697(5)
H25 H 0.2840 0.1617 1.0465
C38 C 0.3332(10) 0.0449(6) 1.0410(5)
C39 C 0.3896(10) 0.0452(6) 0.9777(5)
C40 C 0.4308(8) 0.1178(7) 0.9507(5)
H26 H 0.4197 0.1635 0.9761
N6_2 N 0.7219(8) 0.0475(5) 0.8472(4)
Mn1_2 Mn -0.49247(17) 0.04394(6) 0.82996(7)
C41 C 0.3246(14) 0.3274(9) 0.6723(9)
H27 H 0.3251 0.3069 0.7167
H28 H 0.2408 0.3442 0.6610
H29 H 0.3810 0.3720 0.6694
C42 C 0.3634(12) 0.2687(8) 0.6290(7)
N11 N 0.3992(13) 0.2238(8) 0.5938(6)
O3 O 0.6446(16) 0.3269(8) 0.6786(8)
loop_
_geom_bond_atom_site_label_1
_geom_bond_atom_site_label_2
_geom_bond_site_symmetry_1
_geom_bond_site_symmetry_2
W1 C1 1_555 1_555
C1 N1 1_555 1_555
N1 Mn1 1_555 1_555
C2 W1 1_555 1_555
N2 C2 1_555 1_555
C3 W1 1_555 1_555
N3 C3 1_555 1_555
C4 W1 1_555 1_555
N4 C4 1_555 1_555
C5 W1 1_555 1_555
N5 C5 1_555 1_555
C6 W1 1_555 1_555
N6 C6 1_555 1_555
N7 W1 1_555 1_555
C7 N7 1_555 1_555
H1 C7 1_555 1_555
C8 C7 1_555 1_555
H2 C8 1_555 1_555
C9 C8 1_555 1_555
H3 C9 1_555 1_555
C10 C9 1_555 1_555
H4 C10 1_555 1_555
C11 N7 1_555 1_555
C12 C11 1_555 1_555
C13 C12 1_555 1_555
H5 C13 1_555 1_555
C14 C13 1_555 1_555
H6 C14 1_555 1_555
C15 C14 1_555 1_555
H7 C15 1_555 1_555
C16 C15 1_555 1_555
H8 C16 1_555 1_555
N8 W1 1_555 1_555
Mn1 N9 1_555 1_555
N9 C17 1_555 1_555
C17 H9 1_555 1_555
H10 C17 1_555 1_555
C18 C17 1_555 1_555
H11 C18 1_555 1_555
H12 C18 1_555 1_555
N10 Mn1 1_555 1_555
C19 N10 1_555 1_555
H13 C19 1_555 1_555
C20 C19 1_555 1_555
C21 C20 1_555 1_555
C22 C21 1_555 1_555
H14 C22 1_555 1_555
C23 C22 1_555 1_555
H15 C23 1_555 1_555
C24 C23 1_555 1_555
H16 C24 1_555 1_555
C25 C24 1_555 1_555
H17 C25 1_555 1_555
C26 C21 1_555 1_555
C27 C26 1_555 1_555
H18 C27 1_555 1_555
C28 C27 1_555 1_555
H19 C28 1_555 1_555
C29 C20 1_555 1_555
O1 Mn1 1_555 1_555
O2 Mn1 1_555 1_555
C30 O2 1_555 1_555
C31 C30 1_555 1_555
H20 C31 1_555 1_555
C32 C31 1_555 1_555
H21 C32 1_555 1_555
C33 C32 1_555 1_555
C34 C33 1_555 1_555
H22 C34 1_555 1_555
C35 C34 1_555 1_555
H23 C35 1_555 1_555
C36 C35 1_555 1_555
H24 C36 1_555 1_555
C37 C36 1_555 1_555
H25 C37 1_555 1_555
C38 C33 1_555 1_555
C39 C30 1_555 1_555
C40 N9 1_555 1_555
H26 C40 1_555 1_555
C41 H27 1_555 1_555
H28 C41 1_555 1_555
H29 C41 1_555 1_555
C42 C41 1_555 1_555
N11 C42 1_555 1_555
N6_2 Mn1 1_555 1_555
Mn1_2 N6 1_555 1_555
C10 C11 1_555 1_555
C12 N8 1_555 1_555
C16 N8 1_555 1_555
C18 N10 1_555 1_555
C25 C26 1_555 1_555
C28 C29 1_555 1_555
C29 O1 1_555 1_555
C37 C38 1_555 1_555
C38 C39 1_555 1_555
C39 C40 1_555 1_555

#END
