
#######################################################################
#
#                 Cambridge Crystallographic Data Centre
#                                CCDC 
#
#######################################################################
#
# If this CIF has been generated from an entry in the Cambridge 
# Structural Database, then it will include bibliographic, chemical, 
# crystal, experimental, refinement or atomic coordinate data resulting 
# from the CCDC's data processing and validation procedures.
#
#######################################################################

data_YUHKUJ
_symmetry_cell_setting           monoclinic
_symmetry_space_group_name_H-M   'P 21/n'
_symmetry_Int_Tables_number      14
_space_group_name_Hall           '-P 2yn'
loop_
_symmetry_equiv_pos_site_id
_symmetry_equiv_pos_as_xyz
1 x,y,z
2 1/2-x,1/2+y,1/2-z
3 -x,-y,-z
4 1/2+x,1/2-y,1/2+z
_cell_length_a                   5.995(7)
_cell_length_b                   7.454(8)
_cell_length_c                   11.401(2)
_cell_angle_alpha                90
_cell_angle_beta                 100.329(14)
_cell_angle_gamma                90
_cell_volume                     501.217
loop_
_atom_site_label
_atom_site_type_symbol
_atom_site_fract_x
_atom_site_fract_y
_atom_site_fract_z
Cd1 Cd 0.16887(4) 0.99565(2) 0.67642(2)
O1 O 0.5450(4) 0.9549(4) 0.6538(2)
O2 O 0.7954(5) 1.0098(2) 0.5343(3)
O3 O 0.0959(5) 0.6977(3) 0.6535(3)
O4 O -0.1565(5) 0.7008(3) 0.3582(3)
O5 O -0.0712(4) 1.0565(4) 0.8085(3)
H1 H -0.072(6) 1.170(3) 0.822(4)
H2 H -0.212(4) 1.029(4) 0.784(5)
C1 C 0.5985(7) 0.9904(3) 0.5541(4)
C2 C 0.0410(6) 0.5960(4) 0.5648(3)
C3 C -0.0681(6) 0.5970(4) 0.4400(3)
O1B O 0.4550(4) 1.0451(4) 0.3462(2)
O2B O 0.2046(5) 0.9902(2) 0.4657(3)
C1B C 0.4015(7) 1.0096(3) 0.4459(4)
O3B O -0.0959(5) 0.3023(3) 0.3465(3)
O4B O 0.1565(5) 0.2992(3) 0.6418(3)
C2B C -0.0410(6) 0.4040(4) 0.4352(3)
C3B C 0.0681(6) 0.4030(4) 0.5600(3)
Cd1B Cd -0.16887(4) 0.00435(2) 0.32358(2)
O5B O 0.0712(4) -0.0565(4) 0.1915(3)
H1B H 0.072(6) -0.170(3) 0.178(4)
H2B H 0.212(4) -0.029(4) 0.216(5)
Cd1_2 Cd 0.16887(4) -0.00435(2) 0.67642(2)
Cd1_3 Cd 1.16887(4) 0.99565(2) 0.67642(2)
Cd1A Cd 0.33113(4) 0.49565(2) 0.82358(2)
Cd1B_2 Cd -0.16887(4) 1.00435(2) 0.32358(2)
Cd1B_3 Cd 0.83113(4) 1.00435(2) 0.32358(2)
Cd1C Cd -0.33113(4) 0.50435(2) 0.17642(2)
O1B_2 O -0.5450(4) 0.0451(4) 0.3462(2)
O2_2 O -0.2046(5) 0.0098(2) 0.5343(3)
O2_3 O -0.2046(5) 1.0098(2) 0.5343(3)
O2B_2 O 0.2046(5) -0.0098(2) 0.4657(3)
O3A O 0.4041(5) 1.1977(3) 0.8465(3)
O3C O -0.4041(5) -0.1977(3) 0.1535(3)
O4_2 O -0.1565(5) -0.2992(3) 0.3582(3)
O4A O -0.3435(5) 0.2008(3) 0.1418(3)
O4B_2 O 0.1565(5) 1.2992(3) 0.6418(3)
O4C O 0.3435(5) 0.7992(3) 0.8582(3)
loop_
_geom_bond_atom_site_label_1
_geom_bond_atom_site_label_2
_geom_bond_site_symmetry_1
_geom_bond_site_symmetry_2
Cd1 O1 1_555 1_555
O1 C1 1_555 1_555
O2 C1 1_555 1_555
O3 Cd1 1_555 1_555
O4 C3 1_555 1_555
O5 Cd1 1_555 1_555
H1 O5 1_555 1_555
H2 O5 1_555 1_555
C1 C1B 1_555 1_555
C2 O3 1_555 1_555
C3 C2 1_555 1_555
O1B C1B 1_555 1_555
O2B Cd1 1_555 1_555
C1B O2B 1_555 1_555
O3B C2B 1_555 1_555
O4B C3B 1_555 1_555
C2B C3 1_555 1_555
C3B C2 1_555 1_555
Cd1B O3B 1_555 1_555
O5B Cd1B 1_555 1_555
H1B O5B 1_555 1_555
H2B O5B 1_555 1_555
Cd1_2 O4B 1_555 1_555
Cd1_3 O2 1_555 1_555
Cd1A O3 1_555 1_555
Cd1B_2 O4 1_555 1_555
Cd1B_3 O2 1_555 1_555
Cd1C O4 1_555 1_555
O1B_2 Cd1B 1_555 1_555
O2_2 Cd1B 1_555 1_555
O2_3 Cd1 1_555 1_555
O2B_2 Cd1B 1_555 1_555
O3A Cd1 1_555 1_555
O3C Cd1B 1_555 1_555
O4_2 Cd1B 1_555 1_555
O4A Cd1B 1_555 1_555
O4B_2 Cd1 1_555 1_555
O4C Cd1 1_555 1_555
O1B Cd1B_3 1_555 1_555
O2B Cd1B_2 1_555 1_555
O3B Cd1C 1_555 1_555
O4B Cd1A 1_555 1_555
C2B C3B 1_555 1_555
Cd1_2 O2_2 1_555 1_555
Cd1_2 O2B_2 1_555 1_555
Cd1A O4C 1_555 1_555
Cd1B_2 O2_3 1_555 1_555
Cd1C O4A 1_555 1_555

#END
