
#######################################################################
#
#                 Cambridge Crystallographic Data Centre
#                                CCDC 
#
#######################################################################
#
# If this CIF has been generated from an entry in the Cambridge 
# Structural Database, then it will include bibliographic, chemical, 
# crystal, experimental, refinement or atomic coordinate data resulting 
# from the CCDC's data processing and validation procedures.
#
#######################################################################

data_YUHMUL
_symmetry_cell_setting           tetragonal
_symmetry_space_group_name_H-M   'I 41/a'
_symmetry_Int_Tables_number      88
_space_group_name_Hall           '-I 4ad'
loop_
_symmetry_equiv_pos_site_id
_symmetry_equiv_pos_as_xyz
1 x,y,z
2 1/2-x,-y,1/2+z
3 3/4-y,1/4+x,1/4+z
4 3/4+y,3/4-x,3/4+z
5 1/2+x,1/2+y,1/2+z
6 -x,1/2-y,z
7 1/4-y,3/4+x,3/4+z
8 1/4+y,1/4-x,1/4+z
9 -x,-y,-z
10 1/2+x,y,1/2-z
11 1/4+y,3/4-x,3/4-z
12 1/4-y,1/4+x,1/4-z
13 1/2-x,1/2-y,1/2-z
14 x,1/2+y,-z
15 3/4+y,1/4-x,1/4-z
16 3/4-y,3/4+x,3/4-z
_cell_length_a                   16.9800(2)
_cell_length_b                   16.980
_cell_length_c                   21.8272(4)
_cell_angle_alpha                90
_cell_angle_beta                 90
_cell_angle_gamma                90
_cell_volume                     6293.23
loop_
_atom_site_label
_atom_site_type_symbol
_atom_site_fract_x
_atom_site_fract_y
_atom_site_fract_z
Br1 Br 0.061094(14) 0.341220(14) 0.202906(11)
Cu1 Cu 0.188194(17) 0.433359(17) 0.170108(13)
Cu2 Cu 0.06116(2) 0.319308(19) 0.090429(16)
N1 N 0.16130(11) 0.46291(12) 0.08893(9)
N2 N 0.11752(12) 0.41030(11) 0.05426(9)
N3 N 0.16339(11) 0.50325(11) -0.00718(9)
C1 C 0.23836(14) 0.60708(14) 0.13498(11)
H1 H 0.2540 0.5601 0.1589
H2 H 0.1841 0.6215 0.1472
C2 C 0.29378(15) 0.67503(15) 0.15041(12)
H3 H 0.2749 0.7237 0.1302
H4 H 0.2935 0.6841 0.1952
C3 C 0.37738(15) 0.65740(15) 0.12935(12)
H5 H 0.3980 0.6112 0.1519
H6 H 0.4118 0.7030 0.1385
C4 C 0.37837(15) 0.64062(16) 0.06034(12)
H7 H 0.3615 0.6883 0.0378
H8 H 0.4327 0.6277 0.0474
C5 C 0.32370(14) 0.57228(15) 0.04429(11)
H9 H 0.3443 0.5233 0.0630
H10 H 0.3231 0.5650 -0.0007
C6 C 0.23929(14) 0.58660(14) 0.06698(11)
H11 H 0.2185 0.6334 0.0444
C7 C 0.18755(13) 0.51780(14) 0.05080(10)
C8 C 0.12064(13) 0.43626(13) -0.00283(10)
C9 C 0.08383(14) 0.39413(14) -0.05586(11)
H12 H 0.0495 0.3514 -0.0391
C10 C 0.03198(14) 0.44887(15) -0.09451(12)
H13 H -0.0121 0.4684 -0.0691
H14 H 0.0635 0.4949 -0.1078
C11 C -0.00103(17) 0.40733(18) -0.15072(13)
H15 H -0.0309 0.4455 -0.1759
H16 H -0.0378 0.3653 -0.1376
C12 C 0.06496(19) 0.3712(2) -0.18928(14)
H17 H 0.0419 0.3428 -0.2246
H18 H 0.0992 0.4136 -0.2053
C13 C 0.11384(18) 0.31448(19) -0.15107(13)
H19 H 0.1572 0.2931 -0.1764
H20 H 0.0804 0.2698 -0.1379
C14 C 0.14824(15) 0.35525(16) -0.09472(11)
H21 H 0.1865 0.3958 -0.1080
H22 H 0.1768 0.3161 -0.0695
Br1K Br -0.091220(14) 0.311094(14) 0.047094(11)
Br1N Br 0.091220(14) 0.188906(14) 0.047094(11)
Cu1C Cu 0.183359(17) 0.561806(17) -0.079892(13)
Cu2K Cu -0.069308(19) 0.31116(2) 0.159571(16)
Cu2N Cu 0.069308(19) 0.18884(2) 0.159571(16)
N3B N 0.24675(11) 0.41339(11) 0.24282(9)
loop_
_geom_bond_atom_site_label_1
_geom_bond_atom_site_label_2
_geom_bond_site_symmetry_1
_geom_bond_site_symmetry_2
Br1 Cu1 1_555 1_555
Cu1 N1 1_555 1_555
Cu2 Br1 1_555 1_555
N1 N2 1_555 1_555
N2 Cu2 1_555 1_555
N3 C7 1_555 1_555
C1 H1 1_555 1_555
H2 C1 1_555 1_555
C2 C1 1_555 1_555
H3 C2 1_555 1_555
H4 C2 1_555 1_555
C3 C2 1_555 1_555
H5 C3 1_555 1_555
H6 C3 1_555 1_555
C4 C3 1_555 1_555
H7 C4 1_555 1_555
H8 C4 1_555 1_555
C5 C4 1_555 1_555
H9 C5 1_555 1_555
H10 C5 1_555 1_555
C6 C1 1_555 1_555
H11 C6 1_555 1_555
C7 N1 1_555 1_555
C8 N2 1_555 1_555
C9 C8 1_555 1_555
H12 C9 1_555 1_555
C10 C9 1_555 1_555
H13 C10 1_555 1_555
H14 C10 1_555 1_555
C11 C10 1_555 1_555
H15 C11 1_555 1_555
H16 C11 1_555 1_555
C12 C11 1_555 1_555
H17 C12 1_555 1_555
H18 C12 1_555 1_555
C13 C12 1_555 1_555
H19 C13 1_555 1_555
H20 C13 1_555 1_555
C14 C9 1_555 1_555
H21 C14 1_555 1_555
H22 C14 1_555 1_555
Br1K Cu2 1_555 1_555
Br1N Cu2 1_555 1_555
Cu1C N3 1_555 1_555
Cu2K Br1 1_555 1_555
Cu2N Br1 1_555 1_555
N3B Cu1 1_555 1_555
N3 C8 1_555 1_555
C5 C6 1_555 1_555
C6 C7 1_555 1_555
C13 C14 1_555 1_555
Br1K Cu2K 1_555 1_555
Br1N Cu2N 1_555 1_555

#END
