
#######################################################################
#
#                 Cambridge Crystallographic Data Centre
#                                CCDC 
#
#######################################################################
#
# If this CIF has been generated from an entry in the Cambridge 
# Structural Database, then it will include bibliographic, chemical, 
# crystal, experimental, refinement or atomic coordinate data resulting 
# from the CCDC's data processing and validation procedures.
#
#######################################################################

data_YUHNAS
_symmetry_cell_setting           tetragonal
_symmetry_space_group_name_H-M   'I 41/a'
_symmetry_Int_Tables_number      88
_space_group_name_Hall           '-I 4ad'
loop_
_symmetry_equiv_pos_site_id
_symmetry_equiv_pos_as_xyz
1 x,y,z
2 1/2-x,-y,1/2+z
3 3/4-y,1/4+x,1/4+z
4 3/4+y,3/4-x,3/4+z
5 1/2+x,1/2+y,1/2+z
6 -x,1/2-y,z
7 1/4-y,3/4+x,3/4+z
8 1/4+y,1/4-x,1/4+z
9 -x,-y,-z
10 1/2+x,y,1/2-z
11 1/4+y,3/4-x,3/4-z
12 1/4-y,1/4+x,1/4-z
13 1/2-x,1/2-y,1/2-z
14 x,1/2+y,-z
15 3/4+y,1/4-x,1/4-z
16 3/4-y,3/4+x,3/4-z
_cell_length_a                   18.391(3)
_cell_length_b                   18.391(3)
_cell_length_c                   20.210(4)
_cell_angle_alpha                90
_cell_angle_beta                 90
_cell_angle_gamma                90
_cell_volume                     6835.61
loop_
_atom_site_label
_atom_site_type_symbol
_atom_site_fract_x
_atom_site_fract_y
_atom_site_fract_z
Br1 Br 0.577303(14) 0.691802(14) 0.043647(13)
C1 C 0.60776(13) 0.44864(13) -0.00071(12)
C2 C 0.66948(14) 0.50886(14) -0.07071(13)
C3 C 0.71252(16) 0.56619(15) -0.10307(13)
C4 C 0.77609(18) 0.54985(19) -0.13774(18)
H1 H 0.7921 0.5020 -0.1405
C5 C 0.8152(2) 0.6046(2) -0.1680(2)
H2 H 0.8572 0.5928 -0.1912
C6 C 0.7936(2) 0.6762(2) -0.16463(17)
C7 C 0.8383(3) 0.7357(3) -0.1961(2)
H3 H 0.8818 0.7432 -0.1708
H4 H 0.8105 0.7799 -0.1971
H5 H 0.8510 0.7218 -0.2404
C8 C 0.7304(2) 0.69229(18) -0.13019(18)
H6 H 0.7148 0.7403 -0.1275
C9 C 0.69036(19) 0.63812(17) -0.09970(15)
H7 H 0.6482 0.6501 -0.0767
C10 C 0.57153(14) 0.42794(14) 0.06156(13)
C11 C 0.53368(15) 0.47979(15) 0.09812(14)
H8 H 0.5302 0.5273 0.0827
C12 C 0.50110(16) 0.46076(17) 0.15753(15)
H9 H 0.4756 0.4958 0.1813
C13 C 0.50578(18) 0.39113(17) 0.18212(15)
C14 C 0.4690(2) 0.3706(2) 0.24649(19)
H10 H 0.4797 0.4067 0.2795
H11 H 0.4867 0.3242 0.2610
H12 H 0.4174 0.3681 0.2398
C15 C 0.54469(19) 0.34018(17) 0.14555(16)
H13 H 0.5492 0.2931 0.1618
C16 C 0.57679(17) 0.35748(15) 0.08572(14)
H14 H 0.6017 0.3222 0.0618
Cu1 Cu 0.661821(18) 0.575124(18) 0.064691(16)
Cu2 Cu 0.44124(2) 0.68149(2) 0.08006(2)
N1 N 0.64353(11) 0.51252(11) -0.00840(11)
N2 N 0.65112(12) 0.44688(12) -0.10007(11)
N3 N 0.61067(12) 0.40764(12) -0.05448(11)
Br1E Br 0.422697(14) 0.808198(14) 0.043647(13)
Br1N Br 0.441802(14) 0.672697(14) 0.206353(13)
Cu1F Cu 0.674876(18) 0.411821(18) -0.185309(16)
Cu2E Cu 0.55876(2) 0.81851(2) 0.08006(2)
Cu2H Cu 0.55876(2) 0.31851(2) -0.08006(2)
Cu2K Cu 0.56851(2) 0.69124(2) 0.16994(2)
N2G N 0.69688(12) 0.59888(12) 0.14993(11)
N3H N 0.38933(12) 0.59236(12) 0.05448(11)
loop_
_geom_bond_atom_site_label_1
_geom_bond_atom_site_label_2
_geom_bond_site_symmetry_1
_geom_bond_site_symmetry_2
Br1 Cu1 1_555 1_555
C1 C10 1_555 1_555
C2 C3 1_555 1_555
C3 C4 1_555 1_555
C4 H1 1_555 1_555
C5 C4 1_555 1_555
H2 C5 1_555 1_555
C6 C5 1_555 1_555
C7 C6 1_555 1_555
H3 C7 1_555 1_555
H4 C7 1_555 1_555
H5 C7 1_555 1_555
C8 C6 1_555 1_555
H6 C8 1_555 1_555
C9 C3 1_555 1_555
H7 C9 1_555 1_555
C10 C11 1_555 1_555
C11 H8 1_555 1_555
C12 C11 1_555 1_555
H9 C12 1_555 1_555
C13 C12 1_555 1_555
C14 C13 1_555 1_555
H10 C14 1_555 1_555
H11 C14 1_555 1_555
H12 C14 1_555 1_555
C15 C13 1_555 1_555
H13 C15 1_555 1_555
C16 C10 1_555 1_555
H14 C16 1_555 1_555
Cu1 N1 1_555 1_555
Cu2 Br1 1_555 1_555
N1 C1 1_555 1_555
N2 C2 1_555 1_555
N3 C1 1_555 1_555
Br1E Cu2 1_555 1_555
Br1N Cu2 1_555 1_555
Cu1F N2 1_555 1_555
Cu2E Br1 1_555 1_555
Cu2H N3 1_555 1_555
Cu2K Br1 1_555 1_555
N2G Cu1 1_555 1_555
N3H Cu2 1_555 1_555
C2 N1 1_555 1_555
C8 C9 1_555 1_555
C15 C16 1_555 1_555
N2 N3 1_555 1_555
Br1E Cu2E 1_555 1_555
Br1N Cu2K 1_555 1_555

#END
