
#######################################################################
#
#                 Cambridge Crystallographic Data Centre
#                                CCDC 
#
#######################################################################
#
# If this CIF has been generated from an entry in the Cambridge 
# Structural Database, then it will include bibliographic, chemical, 
# crystal, experimental, refinement or atomic coordinate data resulting 
# from the CCDC's data processing and validation procedures.
#
#######################################################################

data_YUJFUF
_symmetry_cell_setting           monoclinic
_symmetry_space_group_name_H-M   'C 2/c'
_symmetry_Int_Tables_number      15
_space_group_name_Hall           '-C 2yn'
loop_
_symmetry_equiv_pos_site_id
_symmetry_equiv_pos_as_xyz
1 x,y,z
2 -x,y,1/2-z
3 1/2+x,1/2+y,z
4 1/2-x,1/2+y,1/2-z
5 -x,-y,-z
6 x,-y,1/2+z
7 1/2-x,1/2-y,-z
8 1/2+x,1/2-y,1/2+z
_cell_length_a                   12.0023(2)
_cell_length_b                   15.2047(2)
_cell_length_c                   13.0702(2)
_cell_angle_alpha                90
_cell_angle_beta                 90.9000(10)
_cell_angle_gamma                90
_cell_volume                     2384.9
loop_
_atom_site_label
_atom_site_type_symbol
_atom_site_fract_x
_atom_site_fract_y
_atom_site_fract_z
Cd1 Cd 0.5000 0.187264(12) 0.2500
S1 S 0.31329(4) 0.12358(4) 0.23766(5)
N1 N 0.50548(14) 0.28559(11) 0.11441(11)
C1 C 0.41228(19) 0.32196(13) 0.07809(16)
H1 H 0.3461 0.3108 0.1117
C2 C 0.40903(18) 0.37562(13) -0.00741(14)
H2 H 0.3418 0.3996 -0.0302
C3 C 0.50575(18) 0.39337(11) -0.05859(12)
C4 C 0.6023(2) 0.35590(17) -0.02063(16)
H3 H 0.6697 0.3663 -0.0527
C5 C 0.5991(2) 0.30294(16) 0.06506(18)
H4 H 0.6653 0.2783 0.0894
C6 C 0.5061(2) 0.44855(12) -0.15402(13)
H5 H 0.5735 0.4837 -0.1550
H6 H 0.4429 0.4883 -0.1536
C7 C 0.5000 0.39166(16) -0.2500
H7 H 0.4347 0.3542 -0.2475
C8 C 0.34049(16) 0.01639(13) 0.28611(16)
C9 C 0.3691(2) 0.0030(2) 0.38794(19)
H8 H 0.3759 0.0507 0.4322
C10 C 0.3878(3) -0.0822(3) 0.4242(3)
H9 H 0.4064 -0.0911 0.4927
C11 C 0.3790(3) -0.1521(2) 0.3600(4)
H10 H 0.3928 -0.2086 0.3844
C12 C 0.3502(3) -0.13966(19) 0.2605(3)
H11 H 0.3438 -0.1878 0.2169
C13 C 0.3305(2) -0.05626(17) 0.2235(2)
H12 H 0.3101 -0.0488 0.1551
Cd1_2 Cd 0.5000 0.187264(12) -0.7500
S1A S 0.68671(4) 0.12358(4) 0.26234(5)
N1A N 0.49452(14) 0.28559(11) -0.61441(11)
N1A_2 N 0.49452(14) 0.28559(11) 0.38559(11)
C1A C 0.58772(19) 0.32196(13) -0.57809(16)
H1A H 0.6539 0.3108 -0.6117
C2A C 0.59097(18) 0.37562(13) -0.49259(14)
H2A H 0.6582 0.3996 -0.4698
C3A C 0.49425(18) 0.39337(11) -0.44141(12)
C4A C 0.3977(2) 0.35590(17) -0.47937(16)
H3A H 0.3303 0.3663 -0.4473
C5A C 0.4009(2) 0.30294(16) -0.56506(18)
H4A H 0.3347 0.2783 -0.5894
C6A C 0.4939(2) 0.44855(12) -0.34598(13)
H5A H 0.4265 0.4837 -0.3450
H6A H 0.5571 0.4883 -0.3464
H7A H 0.5653 0.3542 -0.2525
C8A C 0.65951(16) 0.01639(13) 0.21389(16)
C9A C 0.6309(2) 0.0030(2) 0.11206(19)
H8A H 0.6241 0.0507 0.0678
C10A C 0.6122(3) -0.0822(3) 0.0758(3)
H9A H 0.5936 -0.0911 0.0073
C11A C 0.6210(3) -0.1521(2) 0.1400(4)
H10A H 0.6072 -0.2086 0.1156
C12A C 0.6498(3) -0.13966(19) 0.2395(3)
H11A H 0.6562 -0.1878 0.2831
C13A C 0.6695(2) -0.05626(17) 0.2765(2)
H12A H 0.6899 -0.0488 0.3449
loop_
_geom_bond_atom_site_label_1
_geom_bond_atom_site_label_2
_geom_bond_site_symmetry_1
_geom_bond_site_symmetry_2
Cd1 S1 1_555 1_555
S1 C8 1_555 1_555
N1 Cd1 1_555 1_555
C1 N1 1_555 1_555
H1 C1 1_555 1_555
C2 C1 1_555 1_555
H2 C2 1_555 1_555
C3 C2 1_555 1_555
C4 C3 1_555 1_555
H3 C4 1_555 1_555
C5 N1 1_555 1_555
H4 C5 1_555 1_555
C6 C3 1_555 1_555
H5 C6 1_555 1_555
H6 C6 1_555 1_555
C7 C6 1_555 1_555
H7 C7 1_555 1_555
C8 C9 1_555 1_555
C9 H8 1_555 1_555
C10 C9 1_555 1_555
H9 C10 1_555 1_555
C11 C10 1_555 1_555
H10 C11 1_555 1_555
C12 C11 1_555 1_555
H11 C12 1_555 1_555
C13 C8 1_555 1_555
H12 C13 1_555 1_555
Cd1_2 N1A 1_555 1_555
S1A Cd1 1_555 1_555
N1A C1A 1_555 1_555
N1A_2 Cd1 1_555 1_555
C1A H1A 1_555 1_555
C2A C1A 1_555 1_555
H2A C2A 1_555 1_555
C3A C2A 1_555 1_555
C4A C3A 1_555 1_555
H3A C4A 1_555 1_555
C5A N1A 1_555 1_555
H4A C5A 1_555 1_555
C6A C7 1_555 1_555
H5A C6A 1_555 1_555
H6A C6A 1_555 1_555
H7A C7 1_555 1_555
C8A S1A 1_555 1_555
C9A C8A 1_555 1_555
H8A C9A 1_555 1_555
C10A C9A 1_555 1_555
H9A C10A 1_555 1_555
C11A C10A 1_555 1_555
H10A C11A 1_555 1_555
C12A C11A 1_555 1_555
H11A C12A 1_555 1_555
C13A C8A 1_555 1_555
H12A C13A 1_555 1_555
C4 C5 1_555 1_555
C12 C13 1_555 1_555
C3A C6A 1_555 1_555
C4A C5A 1_555 1_555
C12A C13A 1_555 1_555

#END
