
#######################################################################
#
#                 Cambridge Crystallographic Data Centre
#                                CCDC 
#
#######################################################################
#
# If this CIF has been generated from an entry in the Cambridge 
# Structural Database, then it will include bibliographic, chemical, 
# crystal, experimental, refinement or atomic coordinate data resulting 
# from the CCDC's data processing and validation procedures.
#
#######################################################################

data_YUJNUN
_symmetry_cell_setting           monoclinic
_symmetry_space_group_name_H-M   'P 21/c'
_symmetry_Int_Tables_number      14
_space_group_name_Hall           '-P 2ybc'
loop_
_symmetry_equiv_pos_site_id
_symmetry_equiv_pos_as_xyz
1 x,y,z
2 -x,1/2+y,1/2-z
3 -x,-y,-z
4 x,1/2-y,1/2+z
_cell_length_a                   6.6773(2)
_cell_length_b                   11.4639(4)
_cell_length_c                   10.0846(3)
_cell_angle_alpha                90
_cell_angle_beta                 90.856(3)
_cell_angle_gamma                90
_cell_volume                     771.869
loop_
_atom_site_label
_atom_site_type_symbol
_atom_site_fract_x
_atom_site_fract_y
_atom_site_fract_z
Ba1 Ba 0.90628(2) 0.190841(11) 0.420309(12)
O1 O 1.0160(3) 0.30750(14) 0.19662(16)
O2 O 1.1695(3) 0.44990(15) 0.08681(15)
O3 O 1.24558(10) 0.08713(6) 0.29588(6)
H1 H 1.2489 0.0826 0.2212
H2 H 1.3074 0.0373 0.3307
O4 O 0.53273(10) 0.25918(6) 0.31984(6)
H3 H 0.4612 0.1998 0.3046
H4 H 0.4622 0.3063 0.3867
O5 O 0.58905(10) 0.11529(6) 0.58854(6)
H5 H 0.4803 0.0919 0.5790
H6 H 0.5836 0.1503 0.6531
N1 N 1.18624(10) 0.39782(6) 0.43698(6)
N2 N 1.23696(10) 0.48046(6) 0.52535(6)
N3 N 1.25748(10) 0.58189(6) 0.46415(6)
N4 N 1.22243(10) 0.56765(6) 0.33373(6)
C1 C 1.17935(10) 0.45464(6) 0.32087(6)
C2 C 1.11673(10) 0.39936(6) 0.19295(6)
Ba1C Ba 0.90628(2) 0.309159(11) -0.079691(12)
Ba1A Ba 1.09372(2) 0.690841(11) 0.079691(12)
Ba1B Ba 1.09372(2) 0.809159(11) 0.579691(12)
O1C O 1.0160(3) 0.19250(14) 0.69662(16)
O2A O 0.8305(3) -0.05010(15) 0.41319(15)
O2C O 1.1695(3) 0.05010(15) 0.58681(15)
N3B N 0.74252(10) 0.41811(6) 0.53585(6)
N4A N 0.77757(10) 0.06765(6) 0.16627(6)
loop_
_geom_bond_atom_site_label_1
_geom_bond_atom_site_label_2
_geom_bond_site_symmetry_1
_geom_bond_site_symmetry_2
Ba1 O1 1_555 1_555
O1 C2 1_555 1_555
O2 C2 1_555 1_555
O3 Ba1 1_555 1_555
H1 O3 1_555 1_555
H2 O3 1_555 1_555
O4 Ba1 1_555 1_555
H3 O4 1_555 1_555
H4 O4 1_555 1_555
O5 Ba1 1_555 1_555
H5 O5 1_555 1_555
H6 O5 1_555 1_555
N1 Ba1 1_555 1_555
N2 N1 1_555 1_555
N3 N2 1_555 1_555
N4 N3 1_555 1_555
C1 N1 1_555 1_555
C2 C1 1_555 1_555
Ba1C O1 1_555 1_555
Ba1A O2 1_555 1_555
Ba1B N3 1_555 1_555
O1C Ba1 1_555 1_555
O2A Ba1 1_555 1_555
O2C Ba1 1_555 1_555
N3B Ba1 1_555 1_555
N4A Ba1 1_555 1_555
O2 Ba1C 1_555 1_555
N4 C1 1_555 1_555
N4 Ba1A 1_555 1_555

#END
