
#######################################################################
#
#                 Cambridge Crystallographic Data Centre
#                                CCDC 
#
#######################################################################
#
# If this CIF has been generated from an entry in the Cambridge 
# Structural Database, then it will include bibliographic, chemical, 
# crystal, experimental, refinement or atomic coordinate data resulting 
# from the CCDC's data processing and validation procedures.
#
#######################################################################

data_YUJQIF
_symmetry_cell_setting           monoclinic
_symmetry_space_group_name_H-M   'P 21/c'
_symmetry_Int_Tables_number      14
_space_group_name_Hall           '-P 2ybc'
loop_
_symmetry_equiv_pos_site_id
_symmetry_equiv_pos_as_xyz
1 x,y,z
2 -x,1/2+y,1/2-z
3 -x,-y,-z
4 x,1/2-y,1/2+z
_cell_length_a                   8.3471(17)
_cell_length_b                   20.085(4)
_cell_length_c                   19.236(4)
_cell_angle_alpha                90
_cell_angle_beta                 91.51(3)
_cell_angle_gamma                90
_cell_volume                     3223.82
loop_
_atom_site_label
_atom_site_type_symbol
_atom_site_fract_x
_atom_site_fract_y
_atom_site_fract_z
Zn1 Zn 0.65278(11) 0.54244(4) 0.37078(5)
N1 N 0.7727(7) 0.5464(3) 0.2817(3)
N2 N 0.9495(8) 0.5797(3) 0.2064(4)
N3 N 0.8089(8) 0.9389(3) -0.0506(4)
N4 N 0.9095(9) 0.9133(3) 0.0528(4)
O1 O 0.5935(6) 0.4504(2) 0.3929(3)
O2 O 0.4663(7) 0.4355(2) 0.2910(3)
O3 O 0.5249(7) 0.1347(2) 0.3898(3)
O4 O 1.0377(6) -0.1362(2) 0.3926(3)
O5 O 1.4789(6) -0.3939(2) 0.3785(3)
O6 O 1.6598(7) -0.3139(3) 0.3602(3)
C1 C 1.5252(12) -0.3320(4) 0.3720(4)
C2 C 1.3882(9) -0.2816(4) 0.3771(4)
C3 C 1.4192(9) -0.2144(4) 0.3701(4)
H1 H 1.5236 -0.2004 0.3625
C4 C 1.2990(9) -0.1676(4) 0.3740(4)
H2 H 1.3213 -0.1227 0.3670
C5 C 1.1471(9) -0.1875(4) 0.3882(4)
C6 C 1.1099(10) -0.2540(4) 0.3948(4)
H3 H 1.0051 -0.2676 0.4016
C7 C 1.2339(9) -0.3002(4) 0.3910(4)
H4 H 1.2115 -0.3450 0.3981
C8 C 0.8708(9) -0.1532(4) 0.4028(5)
H5 H 0.8610 -0.1828 0.4423
H6 H 0.8257 -0.1751 0.3618
C9 C 0.7845(9) -0.0879(4) 0.4157(5)
C10 C 0.6810(9) -0.0607(3) 0.3668(5)
H7 H 0.6566 -0.0836 0.3258
C11 C 0.6130(9) 0.0015(4) 0.3788(4)
H8 H 0.5421 0.0192 0.3456
C12 C 0.6472(9) 0.0374(4) 0.4383(4)
C13 C 0.7484(10) 0.0085(4) 0.4875(5)
H9 H 0.7710 0.0309 0.5289
C14 C 0.8169(10) -0.0533(4) 0.4764(5)
H10 H 0.8855 -0.0716 0.5101
C15 C 0.5854(10) 0.1058(3) 0.4522(4)
H11 H 0.5011 0.1036 0.4858
H12 H 0.6712 0.1333 0.4715
C16 C 0.5191(10) 0.2028(4) 0.3847(4)
C17 C 0.4677(9) 0.2282(4) 0.3218(4)
H13 H 0.4342 0.1992 0.2866
C18 C 0.4646(9) 0.2959(4) 0.3097(4)
H14 H 0.4280 0.3123 0.2669
C19 C 0.5165(9) 0.3397(4) 0.3618(4)
C20 C 0.5627(9) 0.3149(4) 0.4261(4)
H15 H 0.5939 0.3439 0.4616
C21 C 0.5628(10) 0.2465(4) 0.4380(4)
H16 H 0.5922 0.2300 0.4816
C22 C 0.5245(9) 0.4139(4) 0.3467(5)
C23 C 0.7762(10) 0.9288(4) 0.0142(5)
H17 H 0.6740 0.9319 0.0320
C24 C 1.0340(10) 0.9140(4) 0.0076(5)
H18 H 1.1409 0.9047 0.0186
C25 C 0.9740(9) 0.9304(3) -0.0544(5)
H19 H 1.0331 0.9354 -0.0944
C26 C 0.8021(11) 0.4955(4) 0.2359(5)
H20 H 0.7548 0.4537 0.2370
C27 C 0.9103(11) 0.5154(4) 0.1888(4)
H21 H 0.9497 0.4907 0.1521
C28 C 0.8677(10) 0.5954(4) 0.2637(4)
H22 H 0.8771 0.6356 0.2874
C29 C 1.0760(10) 0.6175(4) 0.1734(5)
H23 H 1.0967 0.5978 0.1285
H24 H 1.1735 0.6140 0.2017
C30 C 1.0365(10) 0.6901(4) 0.1631(5)
C31 C 0.9327(11) 0.7089(4) 0.1103(5)
H25 H 0.8873 0.6763 0.0817
C32 C 0.8935(12) 0.7747(4) 0.0984(5)
H26 H 0.8192 0.7854 0.0633
C33 C 0.9625(10) 0.8241(4) 0.1374(4)
C34 C 1.0642(11) 0.8063(4) 0.1905(5)
H27 H 1.1090 0.8391 0.2191
C35 C 1.1022(11) 0.7400(5) 0.2028(5)
H28 H 1.1739 0.7293 0.2389
C36 C 0.9192(10) 0.8966(4) 0.1264(4)
H29 H 0.8169 0.9056 0.1473
H30 H 0.9994 0.9244 0.1494
Zn1_2 Zn 1.65278(11) -0.45756(4) 0.37078(5)
Zn1C Zn 0.65278(11) 0.95756(4) -0.12922(5)
N3C N 0.8089(8) 0.5611(3) 0.4494(4)
O5_2 O 0.4789(6) 0.6061(2) 0.3785(3)
O7 O 0.2326(7) 0.5385(3) 0.3087(3)
loop_
_geom_bond_atom_site_label_1
_geom_bond_atom_site_label_2
_geom_bond_site_symmetry_1
_geom_bond_site_symmetry_2
Zn1 N1 1_555 1_555
N1 C26 1_555 1_555
N2 C27 1_555 1_555
N3 C23 1_555 1_555
N4 C23 1_555 1_555
O1 Zn1 1_555 1_555
O2 C22 1_555 1_555
O3 C15 1_555 1_555
O4 C5 1_555 1_555
O5 C1 1_555 1_555
O6 C1 1_555 1_555
C1 C2 1_555 1_555
C2 C3 1_555 1_555
C3 H1 1_555 1_555
C4 C3 1_555 1_555
H2 C4 1_555 1_555
C5 C4 1_555 1_555
C6 C5 1_555 1_555
H3 C6 1_555 1_555
C7 C2 1_555 1_555
H4 C7 1_555 1_555
C8 O4 1_555 1_555
H5 C8 1_555 1_555
H6 C8 1_555 1_555
C9 C8 1_555 1_555
C10 C9 1_555 1_555
H7 C10 1_555 1_555
C11 C10 1_555 1_555
H8 C11 1_555 1_555
C12 C11 1_555 1_555
C13 C12 1_555 1_555
H9 C13 1_555 1_555
C14 C9 1_555 1_555
H10 C14 1_555 1_555
C15 C12 1_555 1_555
H11 C15 1_555 1_555
H12 C15 1_555 1_555
C16 O3 1_555 1_555
C17 C16 1_555 1_555
H13 C17 1_555 1_555
C18 C17 1_555 1_555
H14 C18 1_555 1_555
C19 C18 1_555 1_555
C20 C19 1_555 1_555
H15 C20 1_555 1_555
C21 C16 1_555 1_555
H16 C21 1_555 1_555
C22 O1 1_555 1_555
C23 H17 1_555 1_555
C24 N4 1_555 1_555
H18 C24 1_555 1_555
C25 N3 1_555 1_555
H19 C25 1_555 1_555
C26 H20 1_555 1_555
C27 C26 1_555 1_555
H21 C27 1_555 1_555
C28 N1 1_555 1_555
H22 C28 1_555 1_555
C29 N2 1_555 1_555
H23 C29 1_555 1_555
H24 C29 1_555 1_555
C30 C29 1_555 1_555
C31 C30 1_555 1_555
H25 C31 1_555 1_555
C32 C31 1_555 1_555
H26 C32 1_555 1_555
C33 C32 1_555 1_555
C34 C33 1_555 1_555
H27 C34 1_555 1_555
C35 C30 1_555 1_555
H28 C35 1_555 1_555
C36 N4 1_555 1_555
H29 C36 1_555 1_555
H30 C36 1_555 1_555
Zn1_2 O5 1_555 1_555
Zn1C N3 1_555 1_555
N3C Zn1 1_555 1_555
O5_2 Zn1 1_555 1_555
N2 C28 1_555 1_555
C6 C7 1_555 1_555
C13 C14 1_555 1_555
C19 C22 1_555 1_555
C20 C21 1_555 1_555
C24 C25 1_555 1_555
C33 C36 1_555 1_555
C34 C35 1_555 1_555

#END
