
#######################################################################
#
#                 Cambridge Crystallographic Data Centre
#                                CCDC 
#
#######################################################################
#
# If this CIF has been generated from an entry in the Cambridge 
# Structural Database, then it will include bibliographic, chemical, 
# crystal, experimental, refinement or atomic coordinate data resulting 
# from the CCDC's data processing and validation procedures.
#
#######################################################################

data_YUKJIZ
_symmetry_cell_setting           triclinic
_symmetry_space_group_name_H-M   'P -1'
_symmetry_Int_Tables_number      2
_space_group_name_Hall           '-P 1'
loop_
_symmetry_equiv_pos_site_id
_symmetry_equiv_pos_as_xyz
1 x,y,z
2 -x,-y,-z
_cell_length_a                   9.992(6)
_cell_length_b                   10.543(6)
_cell_length_c                   10.962(7)
_cell_angle_alpha                80.556(9)
_cell_angle_beta                 71.799(7)
_cell_angle_gamma                74.477(8)
_cell_volume                     1052.91
loop_
_atom_site_label
_atom_site_type_symbol
_atom_site_fract_x
_atom_site_fract_y
_atom_site_fract_z
Yb1 Yb 0.327211(16) 1.307865(14) 0.466384(14)
Zn1 Zn 0.20938(5) 1.13215(5) 0.88175(4)
N1 N 0.0211(4) 1.2977(3) 0.9270(3)
N2 N 0.3704(4) 1.1963(3) 0.9249(3)
C1 C -0.0646(5) 1.3303(5) 1.0441(4)
H1 H -0.038(6) 1.291(5) 1.112(5)
C2 C -0.1908(5) 1.4300(5) 1.0607(4)
H2 H -0.250(7) 1.444(6) 1.141(6)
C3 C -0.2304(5) 1.4958(4) 0.9523(4)
H3 H -0.327(7) 1.567(6) 0.966(6)
C4 C -0.1410(4) 1.4637(4) 0.8294(4)
C5 C -0.0143(4) 1.3650(4) 0.8215(4)
C6 C 0.0988(4) 1.3307(4) 0.6959(4)
C7 C -0.1896(4) 1.5393(4) 0.7141(4)
C8 C 0.4684(5) 1.2567(4) 0.8398(4)
H4 H 0.452(6) 1.289(5) 0.761(6)
C9 C 0.5894(5) 1.2705(5) 0.8686(4)
H5 H 0.6567 1.3117 0.8079
C10 C 0.6086(5) 1.2222(4) 0.9885(4)
H6 H 0.702(6) 1.232(5) 1.002(5)
C11 C 0.5061(4) 1.1618(4) 1.0786(4)
C12 C 0.3878(4) 1.1490(4) 1.0424(4)
C13 C 0.2729(4) 1.0775(4) 1.1275(4)
C14 C 0.5257(4) 1.1184(4) 1.2119(4)
C15 C 0.5591(4) 1.4808(4) 0.4370(4)
O1 O 0.2125(3) 1.2416(3) 0.7006(3)
O2 O 0.0835(3) 1.3940(3) 0.5932(3)
O3 O -0.2569(3) 1.4899(3) 0.6610(3)
O4 O -0.1715(3) 1.6547(3) 0.6820(2)
O5 O 0.1814(3) 1.0623(3) 1.0748(3)
O6 O 0.2751(4) 1.0379(3) 1.2403(3)
O7 O 0.4673(3) 1.2040(3) 1.2913(3)
O8 O 0.6034(3) 1.0072(3) 1.2330(3)
O9 O 0.5414(3) 1.3947(3) 0.3795(3)
O10 O 0.6621(3) 1.5375(3) 0.4030(3)
O11 O 0.0976(4) 1.0010(4) 0.8617(3)
H7 H 0.010(2) 1.028(6) 0.862(7)
H8 H 0.119(8) 0.962(6) 0.794(4)
O12 O 0.2425(4) 1.1152(3) 0.4811(3)
H9 H 0.174(4) 1.092(6) 0.542(4)
H10 H 0.258(7) 1.094(6) 0.406(2)
O13 O 0.5018(3) 1.1566(3) 0.5522(3)
H11 H 0.482(7) 1.102(5) 0.617(4)
H12 H 0.444(5) 1.205(5) 0.512(5)
C15A C 0.4409(4) 1.5192(4) 0.5630(4)
O9A O 0.4586(3) 1.6053(3) 0.6205(3)
O10A O 0.3379(3) 1.4625(3) 0.5970(3)
Yb1A Yb -0.327211(16) 1.692135(14) 0.533616(14)
Zn1A Zn -0.20938(5) 1.86785(5) 0.11825(4)
N1A N -0.0211(4) 1.7023(3) 0.0730(3)
N2A N -0.3704(4) 1.8037(3) 0.0751(3)
C1A C 0.0646(5) 1.6697(5) -0.0441(4)
H1A H 0.038(6) 1.709(5) -0.112(5)
C2A C 0.1908(5) 1.5700(5) -0.0607(4)
H2A H 0.250(7) 1.556(6) -0.141(6)
C3A C 0.2304(5) 1.5042(4) 0.0477(4)
H3A H 0.327(7) 1.433(6) 0.034(6)
C4A C 0.1410(4) 1.5363(4) 0.1706(4)
C5A C 0.0143(4) 1.6350(4) 0.1785(4)
C6A C -0.0988(4) 1.6693(4) 0.3041(4)
C7A C 0.1896(4) 1.4607(4) 0.2859(4)
C8A C -0.4684(5) 1.7433(4) 0.1602(4)
H4A H -0.452(6) 1.711(5) 0.239(6)
C9A C -0.5894(5) 1.7295(5) 0.1314(4)
H5A H -0.6567 1.6883 0.1921
C10A C -0.6086(5) 1.7778(4) 0.0115(4)
H6A H -0.702(6) 1.768(5) -0.002(5)
C11A C -0.5061(4) 1.8382(4) -0.0786(4)
C12A C -0.3878(4) 1.8510(4) -0.0424(4)
C13A C -0.2729(4) 1.9225(4) -0.1275(4)
C14A C -0.5257(4) 1.8816(4) -0.2119(4)
O1A O -0.2125(3) 1.7584(3) 0.2994(3)
O2A O -0.0835(3) 1.6060(3) 0.4068(3)
O3A O 0.2569(3) 1.5101(3) 0.3390(3)
O4A O 0.1715(3) 1.3453(3) 0.3180(2)
O5A O -0.1814(3) 1.9377(3) -0.0748(3)
O6A O -0.2751(4) 1.9621(3) -0.2403(3)
O7A O -0.4673(3) 1.7960(3) -0.2913(3)
O8A O -0.6034(3) 1.9928(3) -0.2330(3)
O11A O -0.0976(4) 1.9990(4) 0.1383(3)
H7A H -0.010(2) 1.972(6) 0.138(7)
H8A H -0.119(8) 2.038(6) 0.206(4)
O12A O -0.2425(4) 1.8848(3) 0.5189(3)
H9A H -0.174(4) 1.908(6) 0.458(4)
H10A H -0.258(7) 1.906(6) 0.594(2)
O13A O -0.5018(3) 1.8434(3) 0.4478(3)
H11A H -0.482(7) 1.898(5) 0.383(4)
H12A H -0.444(5) 1.795(5) 0.488(5)
Yb1_2 Yb 0.327211(16) 1.307865(14) 1.466384(14)
Yb1A_2 Yb -0.327211(16) 1.692135(14) -0.466384(14)
Yb1A_3 Yb 0.672789(16) 1.692135(14) 0.533616(14)
Zn1_2 Zn -0.79062(5) 2.13215(5) -0.11825(4)
Zn1A_2 Zn 0.79062(5) 0.86785(5) 1.11825(4)
O7_2 O 0.4673(3) 1.2040(3) 0.2913(3)
O7A_2 O -0.4673(3) 1.7960(3) 0.7087(3)
O8_2 O -0.3966(3) 2.0072(3) 0.2330(3)
O8A_2 O 0.3966(3) 0.9928(3) 0.7670(3)
O9A_2 O -0.5414(3) 1.6053(3) 0.6205(3)
O10_2 O -0.3379(3) 1.5375(3) 0.4030(3)
O14 O 0.2283(5) 0.8421(5) 0.6611(5)
H13 H 0.179(7) 0.823(8) 0.619(8)
H14 H 0.305(6) 0.781(6) 0.658(9)
O15 O 0.0973(5) 0.7098(5) 0.5555(7)
H15 H 0.150(8) 0.638(5) 0.525(9)
H16 H 0.013(4) 0.698(8) 0.595(9)
O16 O -0.0499(7) 1.1155(7) 0.6562(8)
H17 H -0.073(14) 1.177(9) 0.601(10)
H18 H -0.132(6) 1.104(12) 0.703(10)
loop_
_geom_bond_atom_site_label_1
_geom_bond_atom_site_label_2
_geom_bond_site_symmetry_1
_geom_bond_site_symmetry_2
Yb1 O1 1_555 1_555
Zn1 N1 1_555 1_555
N1 C1 1_555 1_555
N2 Zn1 1_555 1_555
C1 H1 1_555 1_555
C2 C1 1_555 1_555
H2 C2 1_555 1_555
C3 C2 1_555 1_555
H3 C3 1_555 1_555
C4 C3 1_555 1_555
C5 N1 1_555 1_555
C6 C5 1_555 1_555
C7 C4 1_555 1_555
C8 N2 1_555 1_555
H4 C8 1_555 1_555
C9 C8 1_555 1_555
H5 C9 1_555 1_555
C10 C9 1_555 1_555
H6 C10 1_555 1_555
C11 C10 1_555 1_555
C12 N2 1_555 1_555
C13 C12 1_555 1_555
C14 C11 1_555 1_555
C15 O9 1_555 1_555
O1 Zn1 1_555 1_555
O2 Yb1 1_555 1_555
O3 C7 1_555 1_555
O4 C7 1_555 1_555
O5 Zn1 1_555 1_555
O6 C13 1_555 1_555
O7 C14 1_555 1_555
O8 C14 1_555 1_555
O9 Yb1 1_555 1_555
O10 C15 1_555 1_555
O11 Zn1 1_555 1_555
H7 O11 1_555 1_555
H8 O11 1_555 1_555
O12 Yb1 1_555 1_555
H9 O12 1_555 1_555
H10 O12 1_555 1_555
O13 Yb1 1_555 1_555
H11 O13 1_555 1_555
H12 O13 1_555 1_555
O14 H13 1_555 1_555
H14 O14 1_555 1_555
O15 H15 1_555 1_555
H16 O15 1_555 1_555
O16 H17 1_555 1_555
H18 O16 1_555 1_555
C15A C15 1_555 1_555
O9A C15A 1_555 1_555
O10A Yb1 1_555 1_555
Yb1A O3 1_555 1_555
Zn1A N1A 1_555 1_555
N1A C1A 1_555 1_555
N2A Zn1A 1_555 1_555
C1A H1A 1_555 1_555
C2A C1A 1_555 1_555
H2A C2A 1_555 1_555
C3A C2A 1_555 1_555
H3A C3A 1_555 1_555
C4A C3A 1_555 1_555
C5A N1A 1_555 1_555
C6A C5A 1_555 1_555
C7A C4A 1_555 1_555
C8A N2A 1_555 1_555
H4A C8A 1_555 1_555
C9A C8A 1_555 1_555
H5A C9A 1_555 1_555
C10A C9A 1_555 1_555
H6A C10A 1_555 1_555
C11A C10A 1_555 1_555
C12A N2A 1_555 1_555
C13A C12A 1_555 1_555
C14A C11A 1_555 1_555
O1A Yb1A 1_555 1_555
O2A Yb1A 1_555 1_555
O3A Yb1 1_555 1_555
O4A Yb1 1_555 1_555
O5A Zn1A 1_555 1_555
O6A C13A 1_555 1_555
O7A C14A 1_555 1_555
O8A C14A 1_555 1_555
O11A Zn1A 1_555 1_555
H7A O11A 1_555 1_555
H8A O11A 1_555 1_555
O12A Yb1A 1_555 1_555
H9A O12A 1_555 1_555
H10A O12A 1_555 1_555
O13A Yb1A 1_555 1_555
H11A O13A 1_555 1_555
H12A O13A 1_555 1_555
Yb1_2 O7 1_555 1_555
Yb1A_2 O7A 1_555 1_555
Yb1A_3 O10 1_555 1_555
Zn1_2 O8A 1_555 1_555
Zn1A_2 O8 1_555 1_555
O7_2 Yb1 1_555 1_555
O7A_2 Yb1A 1_555 1_555
O8_2 Zn1A 1_555 1_555
O8A_2 Zn1 1_555 1_555
O9A_2 Yb1A 1_555 1_555
O10_2 Yb1A 1_555 1_555
C4 C5 1_555 1_555
C6 O1 1_555 1_555
C6 O2 1_555 1_555
C11 C12 1_555 1_555
C13 O5 1_555 1_555
O4 Yb1A 1_555 1_555
C15A O10A 1_555 1_555
O9A Yb1A_3 1_555 1_555
Zn1A O1A 1_555 1_555
C4A C5A 1_555 1_555
C6A O1A 1_555 1_555
C6A O2A 1_555 1_555
C7A O3A 1_555 1_555
C7A O4A 1_555 1_555
C11A C12A 1_555 1_555
C13A O5A 1_555 1_555

#END
