
#######################################################################
#
#                 Cambridge Crystallographic Data Centre
#                                CCDC 
#
#######################################################################
#
# If this CIF has been generated from an entry in the Cambridge 
# Structural Database, then it will include bibliographic, chemical, 
# crystal, experimental, refinement or atomic coordinate data resulting 
# from the CCDC's data processing and validation procedures.
#
#######################################################################

data_YULFAN
_symmetry_cell_setting           monoclinic
_symmetry_space_group_name_H-M   'C 2/c'
_symmetry_Int_Tables_number      15
_space_group_name_Hall           '-C 2yn'
loop_
_symmetry_equiv_pos_site_id
_symmetry_equiv_pos_as_xyz
1 x,y,z
2 -x,y,1/2-z
3 1/2+x,1/2+y,z
4 1/2-x,1/2+y,1/2-z
5 -x,-y,-z
6 x,-y,1/2+z
7 1/2-x,1/2-y,-z
8 1/2+x,1/2-y,1/2+z
_cell_length_a                   23.880(5)
_cell_length_b                   13.280(3)
_cell_length_c                   12.691(3)
_cell_angle_alpha                90
_cell_angle_beta                 115.51(3)
_cell_angle_gamma                90
_cell_volume                     3632.29
loop_
_atom_site_label
_atom_site_type_symbol
_atom_site_fract_x
_atom_site_fract_y
_atom_site_fract_z
Ag1 Ag 0.01616(2) -0.94821(4) 0.39845(4)
O1 O 0.2019(2) -0.5762(3) 0.6663(4)
O2 O 0.0441(2) -0.3604(3) 0.1204(4)
N1 N 0.1048(2) -0.8724(3) 0.4868(4)
N2 N 0.1292(3) -0.5467(4) 0.4835(4)
N3 N 0.1016(3) -0.3996(4) 0.3100(4)
N4 N 0.0571(2) -0.0555(4) 0.1942(4)
C1 C 0.1582(3) -0.9243(4) 0.5345(5)
H1 H 0.1566 -0.9942 0.5300
C2 C 0.2147(3) -0.8792(5) 0.5890(6)
H2 H 0.2507 -0.9178 0.6204
C3 C 0.2179(3) -0.7747(5) 0.5970(5)
H3 H 0.2560 -0.7425 0.6351
C4 C 0.1635(2) -0.7196(4) 0.5473(5)
C5 C 0.1082(3) -0.7717(4) 0.4940(5)
H4 H 0.0715 -0.7351 0.4615
C6 C 0.1664(3) -0.6075(4) 0.5684(5)
C7 C 0.0888(4) -0.5719(5) 0.3597(6)
H5 H 0.0954 -0.6415 0.3447
H6 H 0.0456 -0.5642 0.3448
C8 C 0.1023(4) -0.5069(5) 0.2830(6)
H7 H 0.0721 -0.5189 0.2033
H8 H 0.1429 -0.5240 0.2882
C9 C 0.1222(4) -0.4411(5) 0.5075(6)
H9 H 0.0796 -0.4289 0.4942
H10 H 0.1487 -0.4268 0.5890
C10 C 0.1382(4) -0.3739(5) 0.4344(6)
H11 H 0.1821 -0.3797 0.4544
H12 H 0.1298 -0.3048 0.4480
C11 C 0.0769(3) -0.3337(5) 0.2213(5)
C12 C 0.0467(3) -0.1548(4) 0.1869(5)
H13 H 0.0069 -0.1783 0.1409
C13 C 0.0936(3) -0.2242(4) 0.2458(5)
C14 C 0.1538(3) -0.1886(5) 0.3103(5)
H14 H 0.1862 -0.2334 0.3487
C15 C 0.1648(3) -0.0864(5) 0.3165(5)
H15 H 0.2046 -0.0610 0.3584
C16 C 0.1154(3) -0.0231(5) 0.2591(5)
H16 H 0.1227 0.0459 0.2654
Ag1A Ag -0.01616(2) 0.05179(4) 0.10155(4)
N4A N -0.0571(2) -1.0555(4) 0.3058(4)
O3 O -0.1367(2) -0.7377(4) 0.3111(5)
O4 O -0.0797(2) -0.8420(4) 0.4419(5)
O5 O -0.0484(3) -0.7820(4) 0.3197(5)
N5 N -0.0882(3) -0.7866(4) 0.3592(6)
O6 O 0.2747(3) -0.6506(5) 0.8901(5)
H17 H 0.303(3) -0.677(6) 0.885(6)
H18 H 0.254(3) -0.627(5) 0.827(6)
loop_
_geom_bond_atom_site_label_1
_geom_bond_atom_site_label_2
_geom_bond_site_symmetry_1
_geom_bond_site_symmetry_2
Ag1 N1 1_555 1_555
O1 C6 1_555 1_555
O2 C11 1_555 1_555
O3 N5 1_555 1_555
O4 N5 1_555 1_555
O5 N5 1_555 1_555
O6 H17 1_555 1_555
N1 C1 1_555 1_555
N2 C6 1_555 1_555
N3 C8 1_555 1_555
N4 C12 1_555 1_555
C1 H1 1_555 1_555
C2 C1 1_555 1_555
H2 C2 1_555 1_555
C3 C2 1_555 1_555
H3 C3 1_555 1_555
C4 C3 1_555 1_555
C5 N1 1_555 1_555
H4 C5 1_555 1_555
C6 C4 1_555 1_555
C7 N2 1_555 1_555
H5 C7 1_555 1_555
H6 C7 1_555 1_555
C8 C7 1_555 1_555
H7 C8 1_555 1_555
H8 C8 1_555 1_555
C9 N2 1_555 1_555
H9 C9 1_555 1_555
H10 C9 1_555 1_555
C10 N3 1_555 1_555
H11 C10 1_555 1_555
H12 C10 1_555 1_555
C11 N3 1_555 1_555
C12 H13 1_555 1_555
C13 C11 1_555 1_555
C14 C13 1_555 1_555
H14 C14 1_555 1_555
C15 C14 1_555 1_555
H15 C15 1_555 1_555
C16 N4 1_555 1_555
H16 C16 1_555 1_555
H18 O6 1_555 1_555
Ag1A N4 1_555 1_555
N4A Ag1 1_555 1_555
C4 C5 1_555 1_555
C9 C10 1_555 1_555
C12 C13 1_555 1_555
C15 C16 1_555 1_555

#END
