
#######################################################################
#
#                 Cambridge Crystallographic Data Centre
#                                CCDC 
#
#######################################################################
#
# If this CIF has been generated from an entry in the Cambridge 
# Structural Database, then it will include bibliographic, chemical, 
# crystal, experimental, refinement or atomic coordinate data resulting 
# from the CCDC's data processing and validation procedures.
#
#######################################################################

data_YULHUI
_symmetry_cell_setting           monoclinic
_symmetry_space_group_name_H-M   'P 21/c'
_symmetry_Int_Tables_number      14
_space_group_name_Hall           '-P 2ybc'
loop_
_symmetry_equiv_pos_site_id
_symmetry_equiv_pos_as_xyz
1 x,y,z
2 -x,1/2+y,1/2-z
3 -x,-y,-z
4 x,1/2-y,1/2+z
_cell_length_a                   8.924(2)
_cell_length_b                   9.620(1)
_cell_length_c                   44.797(6)
_cell_angle_alpha                90
_cell_angle_beta                 93.41(1)
_cell_angle_gamma                90
_cell_volume                     3838.96
loop_
_atom_site_label
_atom_site_type_symbol
_atom_site_fract_x
_atom_site_fract_y
_atom_site_fract_z
Ag1 Ag -0.0958(4) 0.0527(42) 0.2902(8)
P1 P 0.0425(12) 0.3211(12) 0.1933(2)
S1 S -0.2526(12) 0.2347(12) 0.2672(3)
C1 C -0.0460(31) 0.2136(29) 0.2220(7)
C2 C -0.1599(44) 0.3104(36) 0.2361(7)
C3 C 0.4093(33) -0.3605(36) 0.2506(8)
C4 C 0.4772(48) -0.4674(44) 0.2296(11)
C5 C 0.2118(37) 0.2345(37) 0.1843(8)
C6 C 0.3150(44) 0.2995(44) 0.1718(9)
C7 C 0.4591(44) 0.2446(44) 0.1655(9)
C8 C 0.4854(49) 0.1103(47) 0.1712(10)
C9 C 0.3799(38) 0.0254(39) 0.1846(8)
C10 C 0.2378(40) 0.0921(40) 0.1918(8)
C11 C -0.0757(49) 0.2983(51) 0.1606(10)
C12 C -0.1482(52) 0.4200(54) 0.1472(11)
C13 C -0.2384(50) 0.4075(48) 0.1193(10)
C14 C -0.2588(52) 0.2873(55) 0.1092(11)
C15 C -0.2006(55) 0.1690(56) 0.1209(12)
C16 C -0.1011(56) 0.1775(57) 0.1462(12)
Cl1 Cl -0.1917(12) -0.2018(12) 0.2016(3)
O1 O -0.1625(29) -0.3443(14) 0.2084(6)
O2 O -0.3120(30) -0.1920(31) 0.1793(6)
O3 O -0.2316(36) -0.1312(26) 0.2280(5)
O4 O -0.0605(26) -0.1396(28) 0.1908(8)
H1 H 0.037(3) 0.179(3) 0.239(1)
H2 H -0.102(3) 0.125(3) 0.212(1)
H3 H 0.102(4) -0.096(4) 0.256(1)
H4 H 0.246(4) -0.163(4) 0.281(1)
H5 H 0.370(3) -0.415(4) 0.270(1)
H6 H 0.495(3) -0.287(4) 0.258(1)
H7 H 0.300(3) 0.415(2) 0.166(1)
H8 H 0.542(3) 0.307(2) 0.154(1)
H9 H 0.590(3) 0.060(2) 0.167(1)
H10 H 0.397(3) -0.079(2) 0.191(1)
H11 H 0.155(3) 0.028(2) 0.202(1)
H12 H -0.123(4) 0.523(3) 0.157(1)
H13 H -0.288(4) 0.504(3) 0.111(1)
H14 H -0.335(4) 0.273(3) 0.088(1)
H15 H -0.217(4) 0.063(3) 0.110(1)
H16 H -0.053(4) 0.082(3) 0.157(1)
Ag1A Ag 0.0958(4) 0.5527(42) 0.2098(8)
P1A P -0.0425(12) -0.1789(12) 0.3067(2)
C1A C 0.0460(31) -0.2864(29) 0.2780(7)
C2A C 0.1599(44) -0.1896(36) 0.2639(7)
S1A S 0.2526(12) -0.2653(12) 0.2328(3)
Ag1A_2 Ag 0.0958(4) -0.4473(42) 0.2098(8)
P1_2 P 0.0425(12) -0.6789(12) 0.1933(2)
H1A H -0.037(3) -0.321(3) 0.261(1)
H2A H 0.102(3) -0.375(3) 0.288(1)
C5A C -0.2118(37) -0.2655(37) 0.3157(8)
C6A C -0.3150(44) -0.2005(44) 0.3282(9)
C7A C -0.4591(44) -0.2554(44) 0.3345(9)
C8A C -0.4854(49) -0.3897(47) 0.3288(10)
C9A C -0.3799(38) -0.4746(39) 0.3154(8)
C10A C -0.2378(40) -0.4079(40) 0.3082(8)
H11A H -0.155(3) -0.472(2) 0.298(1)
H10A H -0.397(3) -0.579(2) 0.309(1)
H9A H -0.590(3) -0.440(2) 0.333(1)
H8A H -0.542(3) -0.193(2) 0.346(1)
H7A H -0.300(3) -0.085(2) 0.334(1)
C11A C 0.0757(49) -0.2017(51) 0.3394(10)
C12A C 0.1482(52) -0.0800(54) 0.3528(11)
C13A C 0.2384(50) -0.0925(48) 0.3807(10)
C14A C 0.2588(52) -0.2127(55) 0.3908(11)
C15A C 0.2006(55) -0.3310(56) 0.3791(12)
C16A C 0.1011(56) -0.3225(57) 0.3538(12)
H16A H 0.053(4) -0.418(3) 0.343(1)
H15A H 0.217(4) -0.437(3) 0.390(1)
H14A H 0.335(4) -0.227(3) 0.412(1)
H13A H 0.288(4) 0.004(3) 0.389(1)
H12A H 0.123(4) 0.023(3) 0.343(1)
O1A O 0.1625(29) 0.1557(14) 0.2916(6)
Cl1A Cl 0.1917(12) 0.2982(12) 0.2984(3)
O2A O 0.3120(30) 0.3080(31) 0.3207(6)
O3A O 0.2316(36) 0.3688(26) 0.2720(5)
O4A O 0.0605(26) 0.3604(28) 0.3092(8)
C3A C -0.4093(33) 0.1395(36) 0.2494(8)
C4A C -0.4772(48) 0.0326(44) 0.2704(11)
H5A H -0.370(3) 0.085(4) 0.230(1)
H6A H -0.495(3) 0.213(4) 0.242(1)
H3A H -0.102(4) 0.404(4) 0.244(1)
H4A H -0.246(4) 0.337(4) 0.219(1)
Ag2 Ag 0.7085(4) 0.0529(5) 0.4833(8)
P2 P 0.8076(13) -0.0534(16) 0.4411(3)
S2 S 0.7691(13) 0.2419(12) 0.5199(3)
C17 C 1.0111(29) -0.0912(35) 0.4488(8)
C18 C 0.9673(27) 0.2145(35) 0.5294(8)
C19 C 0.7764(59) 0.3904(38) 0.4950(9)
C20 C 0.8570(56) 0.3745(56) 0.4658(10)
C21 C 0.7312(47) -0.2190(46) 0.4298(10)
C22 C 0.6059(49) -0.2708(50) 0.4450(10)
C23 C 0.5622(53) -0.4057(52) 0.4363(11)
C24 C 0.6095(59) -0.4685(57) 0.4110(12)
C25 C 0.7313(59) -0.4219(62) 0.3975(12)
C26 C 0.7833(46) -0.2902(46) 0.4062(10)
C27 C 0.7948(44) 0.0502(49) 0.4081(9)
C28 C 0.6624(59) 0.0726(65) 0.3932(13)
C29 C 0.6424(64) 0.1546(61) 0.3678(13)
C30 C 0.7818(61) 0.2236(59) 0.3592(12)
C31 C 0.9060(67) 0.2098(67) 0.3734(14)
C32 C 0.9201(68) 0.1254(63) 0.3978(14)
Cl2 Cl 0.3521(13) 0.1937(12) 0.4603(3)
O5 O 0.4263(38) 0.0820(30) 0.4759(7)
O6 O 0.2084(21) 0.2154(39) 0.4718(7)
O7 O 0.4397(39) 0.3171(26) 0.4641(9)
O8 O 0.3341(37) 0.1606(37) 0.4293(3)
H17 H 1.066(3) 0.000(4) 0.458(1)
H18 H 1.060(3) -0.117(3) 0.428(1)
H19 H 1.024(3) 0.192(3) 0.509(1)
H20 H 1.014(3) 0.307(4) 0.540(1)
H21 H 0.662(6) 0.420(4) 0.489(1)
H22 H 0.832(5) 0.473(4) 0.508(1)
H23 H 0.566(4) -0.217(3) 0.463(1)
H24 H 0.462(4) -0.447(3) 0.448(1)
H25 H 0.565(4) -0.575(3) 0.406(1)
H26 H 0.774(4) -0.474(3) 0.379(1)
H27 H 0.878(4) -0.245(3) 0.394(1)
H28 H 0.559(3) 0.018(4) 0.399(1)
H29 H 0.540(3) 0.174(4) 0.355(1)
H30 H 0.766(3) 0.295(4) 0.339(1)
H31 H 1.011(3) 0.261(4) 0.367(1)
H32 H 1.029(3) 0.105(4) 0.411(1)
C18B C 1.0327(27) -0.2145(35) 0.4706(8)
S2B S 1.2309(13) -0.2419(12) 0.4801(3)
Ag2B Ag 1.2915(4) -0.0529(5) 0.5167(8)
P2B P 1.1924(13) 0.0534(16) 0.5589(3)
C17B C 0.9889(29) 0.0912(35) 0.5512(8)
H17B H 0.934(3) 0.000(4) 0.542(1)
H18B H 0.940(3) 0.117(3) 0.572(1)
C21B C 1.2688(47) 0.2190(46) 0.5702(10)
C22B C 1.3941(49) 0.2708(50) 0.5550(10)
C23B C 1.4378(53) 0.4057(52) 0.5637(11)
C24B C 1.3905(59) 0.4685(57) 0.5890(12)
C25B C 1.2687(59) 0.4219(62) 0.6025(12)
C26B C 1.2167(46) 0.2902(46) 0.5938(10)
H27B H 1.122(4) 0.245(3) 0.606(1)
H26B H 1.226(4) 0.474(3) 0.621(1)
H25B H 1.435(4) 0.575(3) 0.594(1)
H24B H 1.538(4) 0.447(3) 0.552(1)
H23B H 1.434(4) 0.217(3) 0.537(1)
C27B C 1.2052(44) -0.0502(49) 0.5919(9)
C28B C 1.3376(59) -0.0726(65) 0.6068(13)
C29B C 1.3576(64) -0.1546(61) 0.6322(13)
C30B C 1.2182(61) -0.2236(59) 0.6408(12)
C31B C 1.0940(67) -0.2098(67) 0.6266(14)
C32B C 1.0799(68) -0.1254(63) 0.6022(14)
H32B H 0.971(3) -0.105(4) 0.589(1)
H31B H 0.989(3) -0.261(4) 0.633(1)
H30B H 1.234(3) -0.295(4) 0.661(1)
H29B H 1.460(3) -0.174(4) 0.645(1)
H28B H 1.441(3) -0.018(4) 0.601(1)
O5B O 1.5737(38) -0.0820(30) 0.5241(7)
Cl2B Cl 1.6479(13) -0.1937(12) 0.5397(3)
O6B O 1.7916(21) -0.2154(39) 0.5282(7)
O7B O 1.5603(39) -0.3171(26) 0.5359(9)
O8B O 1.6659(37) -0.1606(37) 0.5707(3)
C19B C 1.2236(59) -0.3904(38) 0.5050(9)
C20B C 1.1430(56) -0.3745(56) 0.5342(10)
H21B H 1.338(6) -0.420(4) 0.511(1)
H22B H 1.168(5) -0.473(4) 0.492(1)
H19B H 0.976(3) -0.192(3) 0.491(1)
H20B H 0.986(3) -0.307(4) 0.460(1)
loop_
_geom_bond_atom_site_label_1
_geom_bond_atom_site_label_2
_geom_bond_site_symmetry_1
_geom_bond_site_symmetry_2
Ag1 S1 1_555 1_555
P1 C1 1_555 1_555
S1 C2 1_555 1_555
C1 C2 1_555 1_555
C2 H3A 1_555 1_555
C3 C4 1_555 1_555
C5 P1 1_555 1_555
C6 C5 1_555 1_555
C7 C6 1_555 1_555
C8 C7 1_555 1_555
C9 C8 1_555 1_555
C10 C5 1_555 1_555
C11 P1 1_555 1_555
C12 C11 1_555 1_555
C13 C12 1_555 1_555
C14 C13 1_555 1_555
C15 C14 1_555 1_555
C16 C11 1_555 1_555
Cl1 O1 1_555 1_555
O1 Ag1A_2 1_555 1_555
O2 Cl1 1_555 1_555
O3 Cl1 1_555 1_555
O4 Cl1 1_555 1_555
Ag2 P2 1_555 1_555
P2 C17 1_555 1_555
S2 Ag2 1_555 1_555
C17 H17 1_555 1_555
C18 S2 1_555 1_555
C19 S2 1_555 1_555
C20 C19 1_555 1_555
C21 P2 1_555 1_555
C22 C21 1_555 1_555
C23 C22 1_555 1_555
C24 C23 1_555 1_555
C25 C24 1_555 1_555
C26 C21 1_555 1_555
C27 P2 1_555 1_555
C28 C27 1_555 1_555
C29 C28 1_555 1_555
C30 C29 1_555 1_555
C31 C30 1_555 1_555
C32 C27 1_555 1_555
Cl2 O5 1_555 1_555
O5 Ag2 1_555 1_555
O6 Cl2 1_555 1_555
O7 Cl2 1_555 1_555
O8 Cl2 1_555 1_555
H1 C1 1_555 1_555
H2 C1 1_555 1_555
H3 C2A 1_555 1_555
H4 C2A 1_555 1_555
H5 C3 1_555 1_555
H6 C3 1_555 1_555
H7 C6 1_555 1_555
H8 C7 1_555 1_555
H9 C8 1_555 1_555
H10 C9 1_555 1_555
H11 C10 1_555 1_555
H12 C12 1_555 1_555
H13 C13 1_555 1_555
H14 C14 1_555 1_555
H15 C15 1_555 1_555
H16 C16 1_555 1_555
H18 C17 1_555 1_555
H19 C18 1_555 1_555
H20 C18 1_555 1_555
H21 C19 1_555 1_555
H22 C19 1_555 1_555
H23 C22 1_555 1_555
H24 C23 1_555 1_555
H25 C24 1_555 1_555
H26 C25 1_555 1_555
H27 C26 1_555 1_555
H28 C28 1_555 1_555
H29 C29 1_555 1_555
H30 C30 1_555 1_555
H31 C31 1_555 1_555
H32 C32 1_555 1_555
Ag1A P1 1_555 1_555
P1A Ag1 1_555 1_555
C1A P1A 1_555 1_555
C2A C1A 1_555 1_555
S1A C3 1_555 1_555
Ag1A_2 S1A 1_555 1_555
P1_2 Ag1A_2 1_555 1_555
H1A C1A 1_555 1_555
H2A C1A 1_555 1_555
C5A P1A 1_555 1_555
C6A C5A 1_555 1_555
C7A C6A 1_555 1_555
C8A C7A 1_555 1_555
C9A C8A 1_555 1_555
C10A C5A 1_555 1_555
H11A C10A 1_555 1_555
H10A C9A 1_555 1_555
H9A C8A 1_555 1_555
H8A C7A 1_555 1_555
H7A C6A 1_555 1_555
C11A P1A 1_555 1_555
C12A C11A 1_555 1_555
C13A C12A 1_555 1_555
C14A C13A 1_555 1_555
C15A C14A 1_555 1_555
C16A C11A 1_555 1_555
H16A C16A 1_555 1_555
H15A C15A 1_555 1_555
H14A C14A 1_555 1_555
H13A C13A 1_555 1_555
H12A C12A 1_555 1_555
O1A Ag1 1_555 1_555
Cl1A O1A 1_555 1_555
O2A Cl1A 1_555 1_555
O3A Cl1A 1_555 1_555
O4A Cl1A 1_555 1_555
C3A S1 1_555 1_555
C4A C3A 1_555 1_555
H5A C3A 1_555 1_555
H6A C3A 1_555 1_555
H4A C2 1_555 1_555
C18B C17 1_555 1_555
S2B C18B 1_555 1_555
Ag2B S2B 1_555 1_555
P2B Ag2B 1_555 1_555
C17B C18 1_555 1_555
H17B C17B 1_555 1_555
H18B C17B 1_555 1_555
C21B P2B 1_555 1_555
C22B C21B 1_555 1_555
C23B C22B 1_555 1_555
C24B C23B 1_555 1_555
C25B C24B 1_555 1_555
C26B C21B 1_555 1_555
H27B C26B 1_555 1_555
H26B C25B 1_555 1_555
H25B C24B 1_555 1_555
H24B C23B 1_555 1_555
H23B C22B 1_555 1_555
C27B P2B 1_555 1_555
C28B C27B 1_555 1_555
C29B C28B 1_555 1_555
C30B C29B 1_555 1_555
C31B C30B 1_555 1_555
C32B C27B 1_555 1_555
H32B C32B 1_555 1_555
H31B C31B 1_555 1_555
H30B C30B 1_555 1_555
H29B C29B 1_555 1_555
H28B C28B 1_555 1_555
O5B Ag2B 1_555 1_555
Cl2B O5B 1_555 1_555
O6B Cl2B 1_555 1_555
O7B Cl2B 1_555 1_555
O8B Cl2B 1_555 1_555
C19B S2B 1_555 1_555
C20B C19B 1_555 1_555
H21B C19B 1_555 1_555
H22B C19B 1_555 1_555
H19B C18B 1_555 1_555
H20B C18B 1_555 1_555
C9 C10 1_555 1_555
C15 C16 1_555 1_555
C25 C26 1_555 1_555
C31 C32 1_555 1_555
C2A S1A 1_555 1_555
C9A C10A 1_555 1_555
C15A C16A 1_555 1_555
P2B C17B 1_555 1_555
C25B C26B 1_555 1_555
C31B C32B 1_555 1_555

#END
