
#######################################################################
#
#                 Cambridge Crystallographic Data Centre
#                                CCDC 
#
#######################################################################
#
# If this CIF has been generated from an entry in the Cambridge 
# Structural Database, then it will include bibliographic, chemical, 
# crystal, experimental, refinement or atomic coordinate data resulting 
# from the CCDC's data processing and validation procedures.
#
#######################################################################

data_YULJAS
_symmetry_cell_setting           monoclinic
_symmetry_space_group_name_H-M   'P 21/c'
_symmetry_Int_Tables_number      14
_space_group_name_Hall           '-P 2ybc'
loop_
_symmetry_equiv_pos_site_id
_symmetry_equiv_pos_as_xyz
1 x,y,z
2 -x,1/2+y,1/2-z
3 -x,-y,-z
4 x,1/2-y,1/2+z
_cell_length_a                   21.654(17)
_cell_length_b                   10.652(9)
_cell_length_c                   18.094(15)
_cell_angle_alpha                90
_cell_angle_beta                 99.582(13)
_cell_angle_gamma                90
_cell_volume                     4115.31
loop_
_atom_site_label
_atom_site_type_symbol
_atom_site_fract_x
_atom_site_fract_y
_atom_site_fract_z
Cu1 Cu 0.15515(5) 0.60177(10) 0.19100(6)
Cu2 Cu 0.28162(5) 0.70292(11) 0.14587(6)
Cu3 Cu 0.20226(6) 0.50935(10) 0.04130(6)
K1 K 0.19263(13) 0.2139(2) 0.15401(15)
O1 O 0.1256(3) 0.4282(5) 0.1999(3)
O2 O 0.1217(4) 0.2540(6) 0.2645(4)
O3 O 0.1931(3) 0.7698(5) 0.1789(4)
O4 O 0.2027(3) 0.9736(7) 0.1664(5)
O5 O 0.3200(3) 0.6712(7) 0.2495(4)
O6 O 0.3901(4) 0.5780(9) 0.3320(5)
O7 O 0.2496(3) 0.6953(6) 0.0397(4)
O8 O 0.2027(3) 0.7719(6) -0.0695(4)
O9 O 0.2409(3) 0.3410(6) 0.0459(4)
O10 O 0.3181(5) 0.2145(9) 0.0326(7)
O11 O 0.1209(3) 0.5759(6) 0.0601(4)
O12 O 0.0261(3) 0.6597(6) 0.0365(3)
O13 O 0.2154(3) 0.5926(6) 0.3060(3)
O14 O 0.2330(3) 0.5434(5) 0.1478(3)
O15 O 0.2924(5) 0.3326(11) 0.2343(8)
O16 O 0.0842(3) 0.2845(7) 0.0680(4)
N1 N 0.0722(3) 0.6796(7) 0.1991(4)
H1 H 0.0535 0.6953 0.1512
N2 N 0.3274(4) 0.8614(7) 0.1375(4)
H2 H 0.3023 0.9233 0.1505
N3 N 0.1770(4) 0.5100(7) -0.0682(4)
H3 H 0.1803 0.5914 -0.0823
C1 C 0.1136(5) 0.3689(9) 0.2558(6)
C2 C 0.0938(4) 0.4421(8) 0.3196(5)
C3 C 0.1132(5) 0.4046(9) 0.3929(6)
H4 H 0.1413 0.3383 0.4021
C4 C 0.0931(6) 0.4605(10) 0.4521(6)
H5 H 0.1065 0.4313 0.5005
C5 C 0.0523(6) 0.5617(10) 0.4396(6)
H6 H 0.0390 0.6024 0.4796
C6 C 0.0319(5) 0.6006(9) 0.3676(5)
H7 H 0.0035 0.6665 0.3590
C7 C 0.0528(4) 0.5436(9) 0.3069(5)
C8 C 0.0284(4) 0.5952(9) 0.2310(5)
H8 H 0.0176 0.5255 0.1968
H9 H -0.0098 0.6413 0.2336
C9 C 0.0786(5) 0.8041(9) 0.2371(5)
H10 H 0.1060 0.7960 0.2851
H11 H 0.0378 0.8312 0.2466
C10 C 0.1049(5) 0.9027(9) 0.1904(6)
H12 H 0.0781 0.9073 0.1419
H13 H 0.1030 0.9835 0.2146
C11 C 0.1712(5) 0.8815(9) 0.1779(6)
C12 C 0.3770(6) 0.6311(11) 0.2709(7)
C13 C 0.4218(5) 0.6487(11) 0.2229(6)
C14 C 0.4642(7) 0.5506(15) 0.2145(8)
H14 H 0.4610 0.4753 0.2396
C15 C 0.5094(8) 0.563(2) 0.1709(10)
H15 H 0.5348 0.4948 0.1639
C16 C 0.5170(7) 0.674(2) 0.1381(8)
H16 H 0.5491 0.6835 0.1101
C17 C 0.4777(5) 0.7735(14) 0.1456(7)
H17 H 0.4838 0.8500 0.1231
C18 C 0.4303(5) 0.7608(12) 0.1855(6)
C19 C 0.3884(5) 0.8731(10) 0.1910(6)
H18 H 0.3799 0.8799 0.2419
H19 H 0.4097 0.9490 0.1798
C20 C 0.3375(5) 0.8923(10) 0.0596(6)
H20 H 0.3626 0.8269 0.0420
H21 H 0.3605 0.9705 0.0604
C21 C 0.2762(5) 0.9045(9) 0.0058(6)
H22 H 0.2849 0.9386 -0.0411
H23 H 0.2499 0.9646 0.0263
C22 C 0.2394(5) 0.7832(8) -0.0109(7)
C23 C 0.2915(6) 0.3172(10) 0.0221(6)
C24 C 0.3179(6) 0.4192(10) -0.0207(7)
C25 C 0.3771(7) 0.4618(12) 0.0073(7)
H24 H 0.4000 0.4224 0.0489
C26 C 0.4036(6) 0.5624(14) -0.0253(8)
H25 H 0.4432 0.5918 -0.0046
C27 C 0.3711(6) 0.6164(12) -0.0871(8)
H26 H 0.3883 0.6833 -0.1098
C28 C 0.3129(6) 0.5727(11) -0.1163(7)
H27 H 0.2914 0.6079 -0.1602
C29 C 0.2851(5) 0.4765(10) -0.0817(6)
C30 C 0.2196(4) 0.4394(10) -0.1082(5)
H28 H 0.2089 0.4554 -0.1615
H29 H 0.2149 0.3502 -0.1000
C31 C 0.1099(4) 0.4779(9) -0.0904(5)
H30 H 0.1013 0.3993 -0.0670
H31 H 0.1007 0.4665 -0.1443
C32 C 0.0682(4) 0.5797(9) -0.0675(5)
H32 H 0.0252 0.5584 -0.0881
H33 H 0.0779 0.6573 -0.0913
C33 C 0.0716(5) 0.6059(8) 0.0167(5)
K1_2 K 0.19263(13) 1.2139(2) 0.15401(15)
O4_2 O 0.2027(3) -0.0264(7) 0.1664(5)
loop_
_geom_bond_atom_site_label_1
_geom_bond_atom_site_label_2
_geom_bond_site_symmetry_1
_geom_bond_site_symmetry_2
Cu1 O1 1_555 1_555
Cu2 O3 1_555 1_555
Cu3 O7 1_555 1_555
K1 O1 1_555 1_555
O1 C1 1_555 1_555
O2 K1 1_555 1_555
O3 Cu1 1_555 1_555
O4 C11 1_555 1_555
O5 Cu2 1_555 1_555
O6 C12 1_555 1_555
O7 Cu2 1_555 1_555
O8 C22 1_555 1_555
O9 Cu3 1_555 1_555
O10 C23 1_555 1_555
O11 Cu1 1_555 1_555
O12 C33 1_555 1_555
O13 Cu1 1_555 1_555
O14 Cu1 1_555 1_555
O15 K1 1_555 1_555
O16 K1 1_555 1_555
N1 Cu1 1_555 1_555
H1 N1 1_555 1_555
N2 Cu2 1_555 1_555
H2 N2 1_555 1_555
N3 Cu3 1_555 1_555
H3 N3 1_555 1_555
C1 O2 1_555 1_555
C2 C1 1_555 1_555
C3 C2 1_555 1_555
H4 C3 1_555 1_555
C4 C3 1_555 1_555
H5 C4 1_555 1_555
C5 C4 1_555 1_555
H6 C5 1_555 1_555
C6 C5 1_555 1_555
H7 C6 1_555 1_555
C7 C2 1_555 1_555
C8 N1 1_555 1_555
H8 C8 1_555 1_555
H9 C8 1_555 1_555
C9 N1 1_555 1_555
H10 C9 1_555 1_555
H11 C9 1_555 1_555
C10 C9 1_555 1_555
H12 C10 1_555 1_555
H13 C10 1_555 1_555
C11 O3 1_555 1_555
C12 O5 1_555 1_555
C13 C12 1_555 1_555
C14 C13 1_555 1_555
H14 C14 1_555 1_555
C15 C14 1_555 1_555
H15 C15 1_555 1_555
C16 C15 1_555 1_555
H16 C16 1_555 1_555
C17 C16 1_555 1_555
H17 C17 1_555 1_555
C18 C13 1_555 1_555
C19 N2 1_555 1_555
H18 C19 1_555 1_555
H19 C19 1_555 1_555
C20 N2 1_555 1_555
H20 C20 1_555 1_555
H21 C20 1_555 1_555
C21 C20 1_555 1_555
H22 C21 1_555 1_555
H23 C21 1_555 1_555
C22 O7 1_555 1_555
C23 O9 1_555 1_555
C24 C23 1_555 1_555
C25 C24 1_555 1_555
H24 C25 1_555 1_555
C26 C25 1_555 1_555
H25 C26 1_555 1_555
C27 C26 1_555 1_555
H26 C27 1_555 1_555
C28 C27 1_555 1_555
H27 C28 1_555 1_555
C29 C24 1_555 1_555
C30 N3 1_555 1_555
H28 C30 1_555 1_555
H29 C30 1_555 1_555
C31 N3 1_555 1_555
H30 C31 1_555 1_555
H31 C31 1_555 1_555
C32 C31 1_555 1_555
H32 C32 1_555 1_555
H33 C32 1_555 1_555
C33 O11 1_555 1_555
K1_2 O4 1_555 1_555
O4_2 K1 1_555 1_555
Cu2 O14 1_555 1_555
Cu3 O11 1_555 1_555
Cu3 O14 1_555 1_555
K1 O9 1_555 1_555
C6 C7 1_555 1_555
C7 C8 1_555 1_555
C10 C11 1_555 1_555
C17 C18 1_555 1_555
C18 C19 1_555 1_555
C21 C22 1_555 1_555
C28 C29 1_555 1_555
C29 C30 1_555 1_555
C32 C33 1_555 1_555

#END
