
#######################################################################
#
#                 Cambridge Crystallographic Data Centre
#                                CCDC 
#
#######################################################################
#
# If this CIF has been generated from an entry in the Cambridge 
# Structural Database, then it will include bibliographic, chemical, 
# crystal, experimental, refinement or atomic coordinate data resulting 
# from the CCDC's data processing and validation procedures.
#
#######################################################################

data_YULWOT
_symmetry_cell_setting           triclinic
_symmetry_space_group_name_H-M   'P -1'
_symmetry_Int_Tables_number      2
_space_group_name_Hall           '-P 1'
loop_
_symmetry_equiv_pos_site_id
_symmetry_equiv_pos_as_xyz
1 x,y,z
2 -x,-y,-z
_cell_length_a                   11.695(3)
_cell_length_b                   12.743(3)
_cell_length_c                   13.731(3)
_cell_angle_alpha                79.510(4)
_cell_angle_beta                 82.465(6)
_cell_angle_gamma                84.529(5)
_cell_volume                     1989.38
loop_
_atom_site_label
_atom_site_type_symbol
_atom_site_fract_x
_atom_site_fract_y
_atom_site_fract_z
Mn1 Mn -0.11576(3) 0.85146(3) 0.34189(3)
Mn2 Mn 0.11683(3) 0.65179(3) 0.14989(3)
O1 O 0.04421(15) 0.76052(15) 0.35702(16)
O2 O 0.19523(15) 0.69102(16) 0.26854(15)
O3 O 0.11654(15) 1.07738(15) 0.51575(15)
O4 O 0.27152(16) 1.04437(16) 0.59422(15)
O5 O -0.19045(16) 0.83059(15) 0.21207(14)
O6 O -0.03934(15) 0.75014(16) 0.13273(16)
O7 O -0.12108(15) 0.44261(15) -0.02485(15)
O8 O -0.27402(17) 0.46697(16) -0.10702(15)
N1 N 0.54354(17) 0.8428(2) 0.35217(19)
H1 H 0.5709 0.7963 0.3154
H2 H 0.5896 0.8807 0.3726
N2 N -0.54012(18) 0.7142(2) 0.0938(2)
H3 H -0.5868 0.6785 0.0716
H4 H -0.5669 0.7637 0.1274
N3 N -0.20559(18) 0.70502(18) 0.42140(18)
N4 N -0.29406(18) 0.58852(18) 0.53941(18)
N5 N -0.91652(18) 0.62024(18) 0.70901(18)
N6 N -1.02697(19) 0.48513(19) 0.75378(18)
N7 N -0.03536(19) 1.00028(18) 0.25636(18)
N8 N 0.06922(18) 1.14017(18) 0.21475(18)
N9 N 0.70226(17) 1.11488(18) 0.08205(17)
N10 N 0.79672(18) 1.21564(17) -0.04525(17)
C1 C 0.1504(2) 0.74970(18) 0.32977(18)
C2 C 0.23075(19) 0.81172(18) 0.37140(17)
C3 C 0.18611(19) 0.88707(18) 0.43055(17)
H5 H 0.1069 0.8961 0.4490
C4 C 0.2616(2) 0.94908(18) 0.46199(17)
C5 C 0.2141(2) 1.02904(19) 0.52763(18)
C6 C 0.3795(2) 0.9341(2) 0.43625(19)
H6 H 0.4288 0.9760 0.4577
C7 C 0.42603(19) 0.8568(2) 0.37832(18)
C8 C 0.34945(19) 0.79665(19) 0.34628(18)
H7 H 0.3783 0.7454 0.3073
C9 C -0.1457(2) 0.77032(18) 0.15170(18)
C10 C -0.22647(19) 0.71872(18) 0.10084(17)
C11 C -0.18345(19) 0.63795(18) 0.04692(17)
H8 H -0.1043 0.6204 0.0367
C12 C -0.2607(2) 0.58342(18) 0.00821(17)
C13 C -0.2163(2) 0.49225(19) -0.04492(18)
C14 C -0.3783(2) 0.6119(2) 0.02113(19)
H9 H -0.4286 0.5770 -0.0070
C15 C -0.42284(19) 0.6921(2) 0.07565(18)
C16 C -0.34498(19) 0.74567(19) 0.11438(18)
H10 H -0.3729 0.8002 0.1498
C17 C -0.2421(3) 0.6268(2) 0.3797(2)
H11 H -0.2309 0.6234 0.3120
C18 C -0.2972(3) 0.5546(2) 0.4513(2)
H12 H -0.3304 0.4942 0.4420
C19 C -0.2396(2) 0.6792(2) 0.5174(2)
H13 H -0.2271 0.7194 0.5646
C20 C -0.3517(2) 0.5406(2) 0.6357(2)
H14 H -0.3109 0.5556 0.6882
H15 H -0.3475 0.4636 0.6397
C21 C -0.4773(2) 0.5815(2) 0.6532(2)
C22 C -0.5472(2) 0.5303(2) 0.7337(2)
H16 H -0.5168 0.4704 0.7743
C23 C -0.6615(2) 0.5666(2) 0.7546(2)
H17 H -0.7068 0.5310 0.8092
C24 C -0.7094(2) 0.6553(2) 0.6953(2)
C25 C -0.6398(2) 0.7053(2) 0.6144(2)
H18 H -0.6706 0.7644 0.5731
C26 C -0.5254(2) 0.6695(2) 0.5931(2)
H19 H -0.4804 0.7047 0.5382
C27 C -0.8337(2) 0.6972(2) 0.7171(2)
H20 H -0.8457 0.7140 0.7840
H21 H -0.8483 0.7628 0.6708
C28 C -0.9609(2) 0.5473(2) 0.7850(2)
H22 H -0.9467 0.5417 0.8509
C29 C -0.9572(3) 0.6038(3) 0.6238(2)
H23 H -0.9412 0.6420 0.5597
C30 C -1.0248(3) 0.5210(3) 0.6522(2)
H24 H -1.0641 0.4923 0.6098
C31 C 0.0266(2) 1.0648(2) 0.2894(2)
H25 H 0.0392 1.0591 0.3557
C32 C -0.0316(2) 1.0373(2) 0.1549(2)
H26 H -0.0677 1.0073 0.1112
C33 C 0.0320(2) 1.1230(2) 0.1287(2)
H27 H 0.0474 1.1626 0.0651
C34 C 0.1492(2) 1.2187(2) 0.2242(3)
H28 H 0.1328 1.2373 0.2904
H29 H 0.1352 1.2833 0.1763
C35 C 0.2751(2) 1.1801(2) 0.2078(2)
C36 C 0.3133(2) 1.0779(2) 0.1954(3)
H30 H 0.2599 1.0285 0.1947
C37 C 0.4308(2) 1.0471(2) 0.1841(3)
H31 H 0.4547 0.9777 0.1743
C38 C 0.5121(2) 1.1163(2) 0.1870(2)
C39 C 0.4727(2) 1.2210(3) 0.1962(3)
H32 H 0.5260 1.2706 0.1964
C40 C 0.3559(2) 1.2530(2) 0.2052(3)
H33 H 0.3318 1.3238 0.2096
C41 C 0.6395(2) 1.0814(3) 0.1808(2)
H34 H 0.6737 1.1108 0.2296
H35 H 0.6486 1.0040 0.1979
C42 C 0.7268(3) 1.0555(2) 0.0086(2)
H36 H 0.7076 0.9859 0.0109
C43 C 0.7852(3) 1.1181(2) -0.0692(2)
H37 H 0.8133 1.0975 -0.1299
C44 C 0.7459(2) 1.2101(2) 0.0465(2)
H38 H 0.7406 1.2657 0.0827
Mn1A Mn 0.11576(3) 1.14854(3) 0.65811(3)
Mn2A Mn -1.11683(3) 0.34821(3) 0.85011(3)
Mn2A_2 Mn -0.11683(3) 0.34821(3) -0.14989(3)
Mn2A_3 Mn 0.88317(3) 1.34821(3) -0.14989(3)
O3A O -0.11654(15) 0.92262(15) 0.48425(15)
O4A O -0.27152(16) 0.95563(16) 0.40578(15)
O7A O 0.12108(15) 0.55739(15) 0.02485(15)
O8A O 0.27402(17) 0.53303(16) 0.10702(15)
N6A N 0.02697(19) 0.51487(19) 0.24622(18)
N10A N 0.20328(18) 0.78436(17) 0.04525(17)
loop_
_geom_bond_atom_site_label_1
_geom_bond_atom_site_label_2
_geom_bond_site_symmetry_1
_geom_bond_site_symmetry_2
Mn1 O1 1_555 1_555
Mn2 O2 1_555 1_555
O1 C1 1_555 1_555
O2 C1 1_555 1_555
O3 C5 1_555 1_555
O4 C5 1_555 1_555
O5 Mn1 1_555 1_555
O6 Mn2 1_555 1_555
O7 C13 1_555 1_555
O8 C13 1_555 1_555
N1 H1 1_555 1_555
H2 N1 1_555 1_555
N2 H3 1_555 1_555
H4 N2 1_555 1_555
N3 Mn1 1_555 1_555
N4 C18 1_555 1_555
N5 C27 1_555 1_555
N6 C28 1_555 1_555
N7 Mn1 1_555 1_555
N8 C31 1_555 1_555
N9 C41 1_555 1_555
N10 C43 1_555 1_555
C1 C2 1_555 1_555
C2 C3 1_555 1_555
C3 H5 1_555 1_555
C4 C3 1_555 1_555
C5 C4 1_555 1_555
C6 C4 1_555 1_555
H6 C6 1_555 1_555
C7 N1 1_555 1_555
C8 C2 1_555 1_555
H7 C8 1_555 1_555
C9 O5 1_555 1_555
C10 C9 1_555 1_555
C11 C10 1_555 1_555
H8 C11 1_555 1_555
C12 C11 1_555 1_555
C13 C12 1_555 1_555
C14 C12 1_555 1_555
H9 C14 1_555 1_555
C15 N2 1_555 1_555
C16 C10 1_555 1_555
H10 C16 1_555 1_555
C17 N3 1_555 1_555
H11 C17 1_555 1_555
C18 C17 1_555 1_555
H12 C18 1_555 1_555
C19 N3 1_555 1_555
H13 C19 1_555 1_555
C20 N4 1_555 1_555
H14 C20 1_555 1_555
H15 C20 1_555 1_555
C21 C20 1_555 1_555
C22 C21 1_555 1_555
H16 C22 1_555 1_555
C23 C22 1_555 1_555
H17 C23 1_555 1_555
C24 C23 1_555 1_555
C25 C24 1_555 1_555
H18 C25 1_555 1_555
C26 C21 1_555 1_555
H19 C26 1_555 1_555
C27 C24 1_555 1_555
H20 C27 1_555 1_555
H21 C27 1_555 1_555
C28 N5 1_555 1_555
H22 C28 1_555 1_555
C29 N5 1_555 1_555
H23 C29 1_555 1_555
C30 N6 1_555 1_555
H24 C30 1_555 1_555
C31 N7 1_555 1_555
H25 C31 1_555 1_555
C32 N7 1_555 1_555
H26 C32 1_555 1_555
C33 N8 1_555 1_555
H27 C33 1_555 1_555
C34 N8 1_555 1_555
H28 C34 1_555 1_555
H29 C34 1_555 1_555
C35 C34 1_555 1_555
C36 C35 1_555 1_555
H30 C36 1_555 1_555
C37 C36 1_555 1_555
H31 C37 1_555 1_555
C38 C37 1_555 1_555
C39 C38 1_555 1_555
H32 C39 1_555 1_555
C40 C35 1_555 1_555
H33 C40 1_555 1_555
C41 C38 1_555 1_555
H34 C41 1_555 1_555
H35 C41 1_555 1_555
C42 N9 1_555 1_555
H36 C42 1_555 1_555
C43 C42 1_555 1_555
H37 C43 1_555 1_555
C44 N9 1_555 1_555
H38 C44 1_555 1_555
Mn1A O3 1_555 1_555
Mn2A N6 1_555 1_555
Mn2A_2 O7 1_555 1_555
Mn2A_3 N10 1_555 1_555
O3A Mn1 1_555 1_555
O4A Mn1 1_555 1_555
O7A Mn2 1_555 1_555
O8A Mn2 1_555 1_555
N6A Mn2 1_555 1_555
N10A Mn2 1_555 1_555
O4 Mn1A 1_555 1_555
O6 C9 1_555 1_555
O8 Mn2A_2 1_555 1_555
N4 C19 1_555 1_555
N10 C44 1_555 1_555
C6 C7 1_555 1_555
C7 C8 1_555 1_555
C14 C15 1_555 1_555
C15 C16 1_555 1_555
C25 C26 1_555 1_555
C29 C30 1_555 1_555
C32 C33 1_555 1_555
C39 C40 1_555 1_555

#END
