
#######################################################################
#
#                 Cambridge Crystallographic Data Centre
#                                CCDC 
#
#######################################################################
#
# If this CIF has been generated from an entry in the Cambridge 
# Structural Database, then it will include bibliographic, chemical, 
# crystal, experimental, refinement or atomic coordinate data resulting 
# from the CCDC's data processing and validation procedures.
#
#######################################################################

data_YULWUZ
_symmetry_cell_setting           monoclinic
_symmetry_space_group_name_H-M   'P 21/c'
_symmetry_Int_Tables_number      14
_space_group_name_Hall           '-P 2ybc'
loop_
_symmetry_equiv_pos_site_id
_symmetry_equiv_pos_as_xyz
1 x,y,z
2 -x,1/2+y,1/2-z
3 -x,-y,-z
4 x,1/2-y,1/2+z
_cell_length_a                   9.888(6)
_cell_length_b                   19.869(12)
_cell_length_c                   15.089(10)
_cell_angle_alpha                90
_cell_angle_beta                 101.072(12)
_cell_angle_gamma                90
_cell_volume                     2909.28
loop_
_atom_site_label
_atom_site_type_symbol
_atom_site_fract_x
_atom_site_fract_y
_atom_site_fract_z
Mn1 Mn 1.0000 1.0000 0.5000
O1 O 1.0057(2) 0.90699(10) 0.42805(13)
N1 N 0.7884(3) 0.96947(14) 0.52610(18)
C1 C 0.9806(3) 0.89250(14) 0.34478(18)
Mn2 Mn 1.0000 0.5000 0.5000
O2 O 0.9690(3) 0.93557(10) 0.28258(13)
N2 N 0.5796(3) 0.92863(14) 0.5227(2)
C2 C 0.9642(3) 0.81843(14) 0.32038(17)
O3 O 1.0060(2) 0.59002(10) 0.42012(14)
N3 N 0.5732(3) 0.57239(16) 0.4924(3)
C3 C 0.9385(3) 0.79830(14) 0.23088(18)
H1 H 0.9247 0.8305 0.1853
O4 O 0.9976(3) 0.67046(11) 0.52190(14)
N4 N 0.7832(3) 0.52716(16) 0.5140(2)
C4 C 0.9332(3) 0.72931(15) 0.20843(19)
N5 N 0.9117(3) 0.70956(14) 0.11844(15)
H2 H 0.9075 0.6675 0.1048
H3 H 0.9025 0.7394 0.0764
C5 C 0.9483(3) 0.68204(14) 0.27761(18)
H4 H 0.9443 0.6364 0.2636
C6 C 0.9695(3) 0.70231(14) 0.36813(18)
C7 C 0.9770(3) 0.77074(14) 0.38915(18)
H5 H 0.9905 0.7845 0.4491
C8 C 0.9929(3) 0.65051(15) 0.44223(19)
C9 C 0.7606(4) 0.96890(18) 0.6138(2)
H6 H 0.8204 0.9839 0.6653
C10 C 0.6347(4) 0.94346(18) 0.6120(3)
H7 H 0.5924 0.9370 0.6613
C11 C 0.6769(4) 0.94437(17) 0.4737(2)
C12 C 0.6561(4) 0.9340(2) 0.3747(2)
H8 H 0.6604 0.8868 0.3620
H9 H 0.7269 0.9573 0.3513
H10 H 0.5676 0.9513 0.3466
C13 C 0.4471(4) 0.89707(18) 0.4905(3)
H11 H 0.4067 0.9164 0.4324
H12 H 0.3866 0.9075 0.5322
C14 C 0.4532(4) 0.82167(18) 0.4804(2)
C15 C 0.3340(4) 0.7871(2) 0.4499(3)
H13 H 0.2513 0.8104 0.4342
C16 C 0.3351(4) 0.7182(2) 0.4422(3)
H14 H 0.2527 0.6957 0.4212
C17 C 0.4549(4) 0.68171(19) 0.4648(3)
C18 C 0.5750(4) 0.71621(19) 0.4939(3)
H15 H 0.6577 0.6927 0.5082
C19 C 0.5753(4) 0.78564(19) 0.5024(3)
H16 H 0.6578 0.8082 0.5228
C20 C 0.4473(4) 0.6059(2) 0.4557(3)
H17 H 0.3756 0.5894 0.4860
H18 H 0.4210 0.5945 0.3923
C21 C 0.6799(4) 0.55061(18) 0.4559(3)
C22 C 0.7439(5) 0.5351(2) 0.5995(3)
H19 H 0.7973 0.5232 0.6550
C23 C 0.6198(5) 0.5621(2) 0.5874(3)
H20 H 0.5711 0.5725 0.6325
C24 C 0.6731(5) 0.5525(3) 0.3568(3)
H21 H 0.7106 0.5943 0.3406
H22 H 0.5789 0.5486 0.3263
H23 H 0.7255 0.5158 0.3394
O5 O 0.9150(3) 1.05193(13) 0.36781(16)
O6 O 1.0775(3) 0.56272(12) 0.62288(15)
H24 H 1.056(4) 0.6002(12) 0.598(2)
H25 H 1.055(4) 0.5630(19) 0.6745(16)
H26 H 0.839(3) 1.071(2) 0.353(3)
H27 H 0.917(4) 1.0196(15) 0.330(2)
O1B O 0.9943(2) 0.09301(10) 0.57195(13)
N1B N 1.2116(3) 0.03053(14) 0.47390(18)
C1B C 1.0194(3) 0.10750(14) 0.65522(18)
O2B O 1.0310(3) 0.06443(10) 0.71742(13)
N2B N 1.4204(3) 0.07137(14) 0.4773(2)
C2B C 1.0358(3) 0.18157(14) 0.67962(17)
O3B O 0.9940(2) 0.40998(10) 0.57988(14)
N3B N 1.4268(3) 0.42761(16) 0.5076(3)
C3B C 1.0615(3) 0.20170(14) 0.76912(18)
H1B H 1.0753 0.1695 0.8147
O4B O 1.0024(3) 0.32954(11) 0.47810(14)
N4B N 1.2168(3) 0.47284(16) 0.4860(2)
C4B C 1.0668(3) 0.27069(15) 0.79157(19)
N5B N 1.0883(3) 0.29044(14) 0.88156(15)
H2B H 1.0925 0.3325 0.8952
H3B H 1.0975 0.2606 0.9236
C5B C 1.0517(3) 0.31796(14) 0.72239(18)
H4B H 1.0557 0.3636 0.7364
C6B C 1.0305(3) 0.29769(14) 0.63187(18)
C7B C 1.0230(3) 0.22926(14) 0.61085(18)
H5B H 1.0095 0.2155 0.5509
C8B C 1.0071(3) 0.34949(15) 0.55777(19)
C9B C 1.2394(4) 0.03110(18) 0.3862(2)
H6B H 1.1796 0.0161 0.3347
C10B C 1.3653(4) 0.05654(18) 0.3880(3)
H7B H 1.4076 0.0630 0.3387
C11B C 1.3231(4) 0.05563(17) 0.5263(2)
C12B C 1.3439(4) 0.0660(2) 0.6253(2)
H8B H 1.3396 0.1132 0.6380
H9B H 1.2731 0.0427 0.6487
H10B H 1.4324 0.0487 0.6534
C13B C 1.5529(4) 0.10293(18) 0.5095(3)
H11B H 1.5933 0.0836 0.5676
H12B H 1.6134 0.0925 0.4678
C14B C 1.5468(4) 0.17833(18) 0.5196(2)
C15B C 1.6660(4) 0.2129(2) 0.5501(3)
H13B H 1.7487 0.1896 0.5658
C16B C 1.6649(4) 0.2818(2) 0.5578(3)
H14B H 1.7473 0.3043 0.5788
C17B C 1.5451(4) 0.31829(19) 0.5352(3)
C18B C 1.4250(4) 0.28379(19) 0.5061(3)
H15B H 1.3423 0.3073 0.4918
C19B C 1.4247(4) 0.21436(19) 0.4976(3)
H16B H 1.3422 0.1918 0.4772
C20B C 1.5527(4) 0.3941(2) 0.5443(3)
H17B H 1.6244 0.4106 0.5140
H18B H 1.5790 0.4055 0.6077
C21B C 1.3201(4) 0.44939(18) 0.5441(3)
C22B C 1.2561(5) 0.4649(2) 0.4005(3)
H19B H 1.2027 0.4768 0.3450
C23B C 1.3802(5) 0.4379(2) 0.4126(3)
H20B H 1.4289 0.4275 0.3675
C24B C 1.3269(5) 0.4475(3) 0.6432(3)
H21B H 1.2894 0.4057 0.6594
H22B H 1.4211 0.4514 0.6737
H23B H 1.2745 0.4842 0.6606
O6B O 0.9225(3) 0.43728(12) 0.37712(15)
H24B H 0.944(4) 0.3998(12) 0.402(2)
H25B H 0.945(4) 0.4370(19) 0.3255(16)
O5B O 1.0850(3) 0.94807(13) 0.63219(16)
H26B H 1.161(3) 0.929(2) 0.647(3)
H27B H 1.083(4) 0.9804(15) 0.670(2)
Mn1_2 Mn 1.0000 0.0000 0.5000
O1B_2 O 0.9943(2) 1.09301(10) 0.57195(13)
N1B_2 N 1.2116(3) 1.03053(14) 0.47390(18)
O7 O 0.3329(3) 0.87496(16) 0.6908(2)
N6 N 0.3786(4) 0.76223(19) 0.7041(3)
C25 C 0.5252(5) 0.7695(3) 0.7350(3)
H28 H 0.5490 0.7570 0.7976
H29 H 0.5512 0.8155 0.7281
H30 H 0.5731 0.7409 0.7001
C26 C 0.3236(6) 0.6946(3) 0.6948(4)
H31 H 0.2276 0.6962 0.6677
H32 H 0.3346 0.6741 0.7533
H33 H 0.3723 0.6687 0.6573
C27 C 0.2976(5) 0.8151(3) 0.6855(3)
H34 H 0.2041 0.8066 0.6663
loop_
_geom_bond_atom_site_label_1
_geom_bond_atom_site_label_2
_geom_bond_site_symmetry_1
_geom_bond_site_symmetry_2
Mn1 O1 1_555 1_555
O1 C1 1_555 1_555
N1 Mn1 1_555 1_555
C1 O2 1_555 1_555
Mn2 O3 1_555 1_555
N2 C10 1_555 1_555
C2 C1 1_555 1_555
O3 C8 1_555 1_555
N3 C20 1_555 1_555
C3 C2 1_555 1_555
H1 C3 1_555 1_555
O4 C8 1_555 1_555
N4 Mn2 1_555 1_555
C4 C3 1_555 1_555
N5 C4 1_555 1_555
H2 N5 1_555 1_555
H3 N5 1_555 1_555
C5 C4 1_555 1_555
H4 C5 1_555 1_555
C6 C5 1_555 1_555
C7 C2 1_555 1_555
H5 C7 1_555 1_555
C8 C6 1_555 1_555
C9 N1 1_555 1_555
H6 C9 1_555 1_555
C10 C9 1_555 1_555
H7 C10 1_555 1_555
C11 N1 1_555 1_555
C12 C11 1_555 1_555
H8 C12 1_555 1_555
H9 C12 1_555 1_555
H10 C12 1_555 1_555
C13 N2 1_555 1_555
H11 C13 1_555 1_555
H12 C13 1_555 1_555
C14 C13 1_555 1_555
C15 C14 1_555 1_555
H13 C15 1_555 1_555
C16 C15 1_555 1_555
H14 C16 1_555 1_555
C17 C16 1_555 1_555
C18 C17 1_555 1_555
H15 C18 1_555 1_555
C19 C14 1_555 1_555
H16 C19 1_555 1_555
C20 C17 1_555 1_555
H17 C20 1_555 1_555
H18 C20 1_555 1_555
C21 N3 1_555 1_555
C22 N4 1_555 1_555
H19 C22 1_555 1_555
C23 N3 1_555 1_555
H20 C23 1_555 1_555
C24 C21 1_555 1_555
H21 C24 1_555 1_555
H22 C24 1_555 1_555
H23 C24 1_555 1_555
O5 Mn1 1_555 1_555
O6 Mn2 1_555 1_555
H24 O6 1_555 1_555
H25 O6 1_555 1_555
H26 O5 1_555 1_555
H27 O5 1_555 1_555
O7 C27 1_555 1_555
N6 C25 1_555 1_555
C25 H28 1_555 1_555
H29 C25 1_555 1_555
H30 C25 1_555 1_555
C26 N6 1_555 1_555
H31 C26 1_555 1_555
H32 C26 1_555 1_555
H33 C26 1_555 1_555
C27 N6 1_555 1_555
H34 C27 1_555 1_555
O1B C1B 1_555 1_555
N1B C9B 1_555 1_555
C1B O2B 1_555 1_555
N2B C10B 1_555 1_555
C2B C1B 1_555 1_555
O3B Mn2 1_555 1_555
N3B C20B 1_555 1_555
C3B C2B 1_555 1_555
H1B C3B 1_555 1_555
O4B C8B 1_555 1_555
N4B Mn2 1_555 1_555
C4B C3B 1_555 1_555
N5B C4B 1_555 1_555
H2B N5B 1_555 1_555
H3B N5B 1_555 1_555
C5B C4B 1_555 1_555
H4B C5B 1_555 1_555
C6B C5B 1_555 1_555
C7B C2B 1_555 1_555
H5B C7B 1_555 1_555
C8B O3B 1_555 1_555
C9B H6B 1_555 1_555
C10B C9B 1_555 1_555
H7B C10B 1_555 1_555
C11B N1B 1_555 1_555
C12B C11B 1_555 1_555
H8B C12B 1_555 1_555
H9B C12B 1_555 1_555
H10B C12B 1_555 1_555
C13B N2B 1_555 1_555
H11B C13B 1_555 1_555
H12B C13B 1_555 1_555
C14B C13B 1_555 1_555
C15B C14B 1_555 1_555
H13B C15B 1_555 1_555
C16B C15B 1_555 1_555
H14B C16B 1_555 1_555
C17B C16B 1_555 1_555
C18B C17B 1_555 1_555
H15B C18B 1_555 1_555
C19B C14B 1_555 1_555
H16B C19B 1_555 1_555
C20B C17B 1_555 1_555
H17B C20B 1_555 1_555
H18B C20B 1_555 1_555
C21B N3B 1_555 1_555
C22B N4B 1_555 1_555
H19B C22B 1_555 1_555
C23B N3B 1_555 1_555
H20B C23B 1_555 1_555
C24B C21B 1_555 1_555
H21B C24B 1_555 1_555
H22B C24B 1_555 1_555
H23B C24B 1_555 1_555
O6B Mn2 1_555 1_555
H24B O6B 1_555 1_555
H25B O6B 1_555 1_555
O5B Mn1 1_555 1_555
H26B O5B 1_555 1_555
H27B O5B 1_555 1_555
Mn1_2 O1B 1_555 1_555
O1B_2 Mn1 1_555 1_555
N1B_2 Mn1 1_555 1_555
N2 C11 1_555 1_555
N4 C21 1_555 1_555
C6 C7 1_555 1_555
C18 C19 1_555 1_555
C22 C23 1_555 1_555
N1B Mn1_2 1_555 1_555
N2B C11B 1_555 1_555
N4B C21B 1_555 1_555
C6B C7B 1_555 1_555
C6B C8B 1_555 1_555
C18B C19B 1_555 1_555
C22B C23B 1_555 1_555

#END
