
#######################################################################
#
#                 Cambridge Crystallographic Data Centre
#                                CCDC 
#
#######################################################################
#
# If this CIF has been generated from an entry in the Cambridge 
# Structural Database, then it will include bibliographic, chemical, 
# crystal, experimental, refinement or atomic coordinate data resulting 
# from the CCDC's data processing and validation procedures.
#
#######################################################################

data_YULXEK
_symmetry_cell_setting           monoclinic
_symmetry_space_group_name_H-M   'P 21/c'
_symmetry_Int_Tables_number      14
_space_group_name_Hall           '-P 2ybc'
loop_
_symmetry_equiv_pos_site_id
_symmetry_equiv_pos_as_xyz
1 x,y,z
2 -x,1/2+y,1/2-z
3 -x,-y,-z
4 x,1/2-y,1/2+z
_cell_length_a                   10.4640(19)
_cell_length_b                   11.5072(12)
_cell_length_c                   16.689(2)
_cell_angle_alpha                90
_cell_angle_beta                 102.865(8)
_cell_angle_gamma                90
_cell_volume                     1959.1
loop_
_atom_site_label
_atom_site_type_symbol
_atom_site_fract_x
_atom_site_fract_y
_atom_site_fract_z
Mn1 Mn 0.24690(2) 0.06518(2) 0.241739(16)
O1 O -0.09124(12) -0.30531(11) 0.30521(8)
O2 O -0.03915(13) -0.46012(11) 0.24177(8)
O3 O 0.42541(15) -0.50654(14) 0.20163(11)
O4 O 0.57461(13) -0.40037(13) 0.28754(9)
N1 N 0.08508(19) -0.18332(15) 0.04843(10)
N2 N 0.19835(18) -0.06312(14) 0.14046(10)
N3 N 0.30389(17) 0.17839(14) 0.35903(10)
N4 N 0.32711(15) -0.05480(12) 0.35098(9)
H1 H 0.4160 -0.0515 0.3591
C1 C 0.0723(2) -0.43720(18) 0.06489(12)
H2 H 0.1216 -0.3956 0.1088
C2 C -0.0808(2) -0.44242(18) -0.06437(12)
H3 H -0.1353 -0.4042 -0.1081
C3 C -0.0086(2) -0.37834(18) 0.00109(11)
C4 C -0.0281(2) -0.24860(19) 0.00158(13)
H4 H -0.0478 -0.2209 -0.0547
H5 H -0.1036 -0.2321 0.0245
C5 C 0.2073(3) -0.1750(2) 0.03281(16)
H6 H 0.2375 -0.2126 -0.0087
C6 C 0.2759(2) -0.1012(2) 0.08956(15)
H7 H 0.3627 -0.0795 0.0934
C7 C 0.0852(2) -0.11525(18) 0.11382(12)
H8 H 0.0133 -0.1061 0.1375
C8 C 0.3222(3) 0.29377(18) 0.36009(14)
H9 H 0.3097 0.3333 0.3103
C9 C 0.3591(3) 0.35624(19) 0.43247(15)
H10 H 0.3699 0.4364 0.4313
C10 C 0.3795(2) 0.2980(2) 0.50602(15)
H11 H 0.4048 0.3382 0.5554
C11 C 0.3622(2) 0.17899(19) 0.50581(13)
H12 H 0.3767 0.1377 0.5549
C12 C 0.32255(19) 0.12196(16) 0.43087(11)
C13 C 0.2956(2) -0.00690(16) 0.42576(11)
H13 H 0.3483 -0.0453 0.4737
H14 H 0.2040 -0.0210 0.4251
C14 C 0.29198(17) -0.17289(14) 0.32985(10)
C15 C 0.16401(17) -0.21246(15) 0.32193(10)
H15 H 0.1010 -0.1647 0.3363
C16 C 0.13100(16) -0.32444(14) 0.29222(10)
C17 C 0.22549(17) -0.39595(15) 0.27009(10)
H16 H 0.2030 -0.4702 0.2499
C18 C 0.35293(17) -0.35607(15) 0.27835(10)
C19 C 0.38550(17) -0.24468(15) 0.30847(10)
H17 H 0.4710 -0.2181 0.3143
C20 C -0.00789(17) -0.36600(15) 0.27890(10)
C21 C 0.45782(19) -0.42843(16) 0.25280(12)
N1B N -0.08508(19) -0.81668(15) -0.04843(10)
N2B N -0.19835(18) -0.93688(14) -0.14046(10)
C1B C -0.0723(2) -0.56280(18) -0.06489(12)
H2B H -0.1216 -0.6044 -0.1088
C2B C 0.0808(2) -0.55758(18) 0.06437(12)
H3B H 0.1353 -0.5958 0.1081
C3B C 0.0086(2) -0.62166(18) -0.00109(11)
C4B C 0.0281(2) -0.75140(19) -0.00158(13)
H4B H 0.0478 -0.7791 0.0547
H5B H 0.1036 -0.7679 -0.0245
C5B C -0.2073(3) -0.8250(2) -0.03281(16)
H6B H -0.2375 -0.7874 0.0087
C6B C -0.2759(2) -0.8988(2) -0.08956(15)
H7B H -0.3627 -0.9205 -0.0934
C7B C -0.0852(2) -0.88475(18) -0.11382(12)
H8B H -0.0133 -0.8939 -0.1375
Mn1B Mn -0.24690(2) -1.06518(2) -0.241739(16)
O1B O 0.09124(12) -0.69469(11) -0.30521(8)
O2B O 0.03915(13) -0.53988(11) -0.24177(8)
O3B O -0.42541(15) -0.49346(14) -0.20163(11)
O4B O -0.57461(13) -0.59963(13) -0.28754(9)
N3B N -0.30389(17) -1.17839(14) -0.35903(10)
N4B N -0.32711(15) -0.94520(12) -0.35098(9)
H1B H -0.4160 -0.9485 -0.3591
C8B C -0.3222(3) -1.29377(18) -0.36009(14)
H9B H -0.3097 -1.3333 -0.3103
C9B C -0.3591(3) -1.35624(19) -0.43247(15)
H10B H -0.3699 -1.4364 -0.4313
C10B C -0.3795(2) -1.2980(2) -0.50602(15)
H11B H -0.4048 -1.3382 -0.5554
C11B C -0.3622(2) -1.17899(19) -0.50581(13)
H12B H -0.3767 -1.1377 -0.5549
C12B C -0.32255(19) -1.12196(16) -0.43087(11)
C13B C -0.2956(2) -0.99310(16) -0.42576(11)
H13B H -0.3483 -0.9547 -0.4737
H14B H -0.2040 -0.9790 -0.4251
C14B C -0.29198(17) -0.82711(14) -0.32985(10)
C15B C -0.16401(17) -0.78754(15) -0.32193(10)
H15B H -0.1010 -0.8353 -0.3363
C16B C -0.13100(16) -0.67556(14) -0.29222(10)
C17B C -0.22549(17) -0.60405(15) -0.27009(10)
H16B H -0.2030 -0.5298 -0.2499
C18B C -0.35293(17) -0.64393(15) -0.27835(10)
C19B C -0.38550(17) -0.75532(15) -0.30847(10)
H17B H -0.4710 -0.7819 -0.3143
C20B C 0.00789(17) -0.63400(15) -0.27890(10)
C21B C -0.45782(19) -0.57157(16) -0.25280(12)
Mn1A Mn -0.24690(2) -0.43482(2) 0.258261(16)
Mn1A_2 Mn 0.75310(2) -0.43482(2) 0.258261(16)
Mn1C Mn -0.75310(2) -0.56518(2) -0.258261(16)
Mn1C_2 Mn 0.24690(2) -0.56518(2) -0.258261(16)
O1A O 0.09124(12) 0.19469(11) 0.19479(8)
O1C O -0.09124(12) -1.19469(11) -0.19479(8)
O2A O 0.03915(13) 0.03988(11) 0.25823(8)
O2C O -0.03915(13) -1.03988(11) -0.25823(8)
O4A O 0.42539(13) 0.09963(13) 0.21246(9)
O4C O -0.42539(13) -1.09963(13) -0.21246(9)
loop_
_geom_bond_atom_site_label_1
_geom_bond_atom_site_label_2
_geom_bond_site_symmetry_1
_geom_bond_site_symmetry_2
Mn1 N2 1_555 1_555
O1 C20 1_555 1_555
O2 C20 1_555 1_555
O3 C21 1_555 1_555
O4 C21 1_555 1_555
N1 C4 1_555 1_555
N2 C6 1_555 1_555
N3 Mn1 1_555 1_555
N4 Mn1 1_555 1_555
H1 N4 1_555 1_555
C1 H2 1_555 1_555
C2 H3 1_555 1_555
C3 C1 1_555 1_555
C4 C3 1_555 1_555
H4 C4 1_555 1_555
H5 C4 1_555 1_555
C5 N1 1_555 1_555
H6 C5 1_555 1_555
C6 C5 1_555 1_555
H7 C6 1_555 1_555
C7 N1 1_555 1_555
H8 C7 1_555 1_555
C8 N3 1_555 1_555
H9 C8 1_555 1_555
C9 C8 1_555 1_555
H10 C9 1_555 1_555
C10 C9 1_555 1_555
H11 C10 1_555 1_555
C11 C10 1_555 1_555
H12 C11 1_555 1_555
C12 N3 1_555 1_555
C13 N4 1_555 1_555
H13 C13 1_555 1_555
H14 C13 1_555 1_555
C14 N4 1_555 1_555
C15 C14 1_555 1_555
H15 C15 1_555 1_555
C16 C15 1_555 1_555
C17 C16 1_555 1_555
H16 C17 1_555 1_555
C18 C17 1_555 1_555
C19 C14 1_555 1_555
H17 C19 1_555 1_555
C20 C16 1_555 1_555
C21 C18 1_555 1_555
N1B C4B 1_555 1_555
N2B C6B 1_555 1_555
C1B C2 1_555 1_555
H2B C1B 1_555 1_555
C2B C1 1_555 1_555
H3B C2B 1_555 1_555
C3B C1B 1_555 1_555
C4B C3B 1_555 1_555
H4B C4B 1_555 1_555
H5B C4B 1_555 1_555
C5B N1B 1_555 1_555
H6B C5B 1_555 1_555
C6B C5B 1_555 1_555
H7B C6B 1_555 1_555
C7B N1B 1_555 1_555
H8B C7B 1_555 1_555
Mn1B N2B 1_555 1_555
O1B C20B 1_555 1_555
O2B C20B 1_555 1_555
O3B C21B 1_555 1_555
O4B C21B 1_555 1_555
N3B Mn1B 1_555 1_555
N4B Mn1B 1_555 1_555
H1B N4B 1_555 1_555
C8B N3B 1_555 1_555
H9B C8B 1_555 1_555
C9B C8B 1_555 1_555
H10B C9B 1_555 1_555
C10B C9B 1_555 1_555
H11B C10B 1_555 1_555
C11B C10B 1_555 1_555
H12B C11B 1_555 1_555
C12B N3B 1_555 1_555
C13B N4B 1_555 1_555
H13B C13B 1_555 1_555
H14B C13B 1_555 1_555
C14B N4B 1_555 1_555
C15B C14B 1_555 1_555
H15B C15B 1_555 1_555
C16B C15B 1_555 1_555
C17B C16B 1_555 1_555
H16B C17B 1_555 1_555
C18B C17B 1_555 1_555
C19B C14B 1_555 1_555
H17B C19B 1_555 1_555
C20B C16B 1_555 1_555
C21B C18B 1_555 1_555
Mn1A O1 1_555 1_555
Mn1A_2 O4 1_555 1_555
Mn1C O4B 1_555 1_555
Mn1C_2 O1B 1_555 1_555
O1A Mn1 1_555 1_555
O1C Mn1B 1_555 1_555
O2A Mn1 1_555 1_555
O2C Mn1B 1_555 1_555
O4A Mn1 1_555 1_555
O4C Mn1B 1_555 1_555
O2 Mn1A 1_555 1_555
N2 C7 1_555 1_555
C2 C3 1_555 1_555
C11 C12 1_555 1_555
C12 C13 1_555 1_555
C18 C19 1_555 1_555
N2B C7B 1_555 1_555
C2B C3B 1_555 1_555
O2B Mn1C_2 1_555 1_555
C11B C12B 1_555 1_555
C12B C13B 1_555 1_555
C18B C19B 1_555 1_555

#END
