
#######################################################################
#
#                 Cambridge Crystallographic Data Centre
#                                CCDC 
#
#######################################################################
#
# If this CIF has been generated from an entry in the Cambridge 
# Structural Database, then it will include bibliographic, chemical, 
# crystal, experimental, refinement or atomic coordinate data resulting 
# from the CCDC's data processing and validation procedures.
#
#######################################################################

data_YUMCIS
_symmetry_cell_setting           orthorhombic
_symmetry_space_group_name_H-M   'P m m n'
_symmetry_Int_Tables_number      59
_space_group_name_Hall           '-P 2ab 2a'
loop_
_symmetry_equiv_pos_site_id
_symmetry_equiv_pos_as_xyz
1 x,y,z
2 1/2-x,1/2-y,z
3 1/2+x,-y,-z
4 -x,1/2+y,-z
5 -x,-y,-z
6 1/2+x,1/2+y,-z
7 1/2-x,y,z
8 x,1/2-y,z
_cell_length_a                   7.405(3)
_cell_length_b                   12.200(8)
_cell_length_c                   6.091(4)
_cell_angle_alpha                90
_cell_angle_beta                 90
_cell_angle_gamma                90
_cell_volume                     550.267
loop_
_atom_site_label
_atom_site_type_symbol
_atom_site_fract_x
_atom_site_fract_y
_atom_site_fract_z
Hg1 Hg 0.2500 0.2500 0.1576(1)
S1 S 0.2500 0.0577(3) 0.3699(6)
N1 N -0.0774(15) 0.2500 0.1423(16)
N2 N 0.2500 0.1212(13) 0.8108(20)
C1 C 0.2500 0.0976(11) 0.6284(20)
C2 C -0.1463(12) 0.3484(8) 0.0331(17)
C3 C -0.1474(21) 0.2500 0.3730(19)
C2F C -0.3537(12) 0.3484(8) 0.0331(17)
N1F N -0.4226(15) 0.2500 0.1423(16)
C2A C -0.3537(12) 0.1516(8) 0.0331(17)
C2G C -0.1463(12) 0.1516(8) 0.0331(17)
C3A C -0.3526(21) 0.2500 0.3730(19)
S1A S 0.2500 0.4423(3) 0.3699(6)
N2A N 0.2500 0.3788(13) 0.8108(20)
C1A C 0.2500 0.4024(11) 0.6284(20)
N1A N 0.5774(15) 0.2500 0.1423(16)
N2_2 N 0.2500 0.1212(13) -0.1892(20)
N2A_2 N 0.2500 0.3788(13) -0.1892(20)
Hg1F Hg -0.7500 0.2500 0.1576(1)
Hg1_2 Hg 0.2500 0.2500 1.1576(1)
loop_
_geom_bond_atom_site_label_1
_geom_bond_atom_site_label_2
_geom_bond_site_symmetry_1
_geom_bond_site_symmetry_2
Hg1 S1 1_555 1_555
S1 C1 1_555 1_555
N1 Hg1 1_555 1_555
N2 C1 1_555 1_555
C2 N1 1_555 1_555
C3 N1 1_555 1_555
C2F C2 1_555 1_555
N1F C2F 1_555 1_555
C2A N1F 1_555 1_555
C2G N1 1_555 1_555
C3A C3 1_555 1_555
S1A Hg1 1_555 1_555
N2A C1A 1_555 1_555
C1A S1A 1_555 1_555
N1A Hg1 1_555 1_555
N2_2 Hg1 1_555 1_555
N2A_2 Hg1 1_555 1_555
Hg1F N1F 1_555 1_555
Hg1_2 N2 1_555 1_555
N1F C3A 1_555 1_555
C2A C2G 1_555 1_555
N2A Hg1_2 1_555 1_555

#END
