
#######################################################################
#
#                 Cambridge Crystallographic Data Centre
#                                CCDC 
#
#######################################################################
#
# If this CIF has been generated from an entry in the Cambridge 
# Structural Database, then it will include bibliographic, chemical, 
# crystal, experimental, refinement or atomic coordinate data resulting 
# from the CCDC's data processing and validation procedures.
#
#######################################################################

data_YUMFOC
_symmetry_cell_setting           monoclinic
_symmetry_space_group_name_H-M   'P 21'
_symmetry_Int_Tables_number      4
_space_group_name_Hall           'P 2yb'
loop_
_symmetry_equiv_pos_site_id
_symmetry_equiv_pos_as_xyz
1 x,y,z
2 -x,1/2+y,-z
_cell_length_a                   9.2307(8)
_cell_length_b                   15.4834(13)
_cell_length_c                   14.4266(12)
_cell_angle_alpha                90
_cell_angle_beta                 104.676(2)
_cell_angle_gamma                90
_cell_volume                     1994.62
loop_
_atom_site_label
_atom_site_type_symbol
_atom_site_fract_x
_atom_site_fract_y
_atom_site_fract_z
C1 C 1.4904(6) 0.4763(3) 1.0506(4)
H1 H 1.5555 0.5147 1.0292
C2 C 1.4921(6) 0.4773(3) 1.1494(4)
H2 H 1.5576 0.5144 1.1932
C3 C 1.3943(6) 0.4219(3) 1.1797(4)
C4 C 1.3014(6) 0.3698(4) 1.1122(4)
H3 H 1.2325 0.3321 1.1308
C5 C 1.3086(6) 0.3725(4) 1.0184(4)
H4 H 1.2440 0.3356 0.9737
C6 C 1.3948(7) 0.4208(3) 1.2850(4)
H5 H 1.3212 0.4639 1.2954
H6 H 1.4949 0.4393 1.3230
C7 C 1.3581(7) 0.3338(4) 1.3231(4)
H7 H 1.2531 0.3181 1.2920
H8 H 1.4240 0.2887 1.3073
C8 C 1.5362(6) 0.3523(3) 1.5904(4)
H9 H 1.6340 0.3572 1.6317
C9 C 1.5212(6) 0.3429(3) 1.4927(4)
H10 H 1.6076 0.3399 1.4685
C10 C 1.3799(7) 0.3378(3) 1.4307(4)
C11 C 1.2573(6) 0.3387(3) 1.4709(4)
H11 H 1.1583 0.3341 1.4312
C12 C 1.2816(6) 0.3464(3) 1.5692(4)
H12 H 1.1971 0.3457 1.5955
C13 C 1.1027(6) 0.4718(3) 0.7734(4)
H13 H 1.1099 0.4398 0.8306
C14 C 0.9684(6) 0.5100(3) 0.7300(4)
H14 H 0.8850 0.5037 0.7568
C15 C 0.9550(6) 0.5581(4) 0.6463(4)
C16 C 1.0805(6) 0.5628(4) 0.6095(4)
H15 H 1.0763 0.5938 0.5521
C17 C 1.2102(6) 0.5222(3) 0.6569(4)
H16 H 1.2945 0.5258 0.6305
C18 C 0.8099(6) 0.6004(4) 0.5935(4)
H17 H 0.7388 0.6006 0.6346
H18 H 0.8292 0.6611 0.5786
C19 C 0.7421(6) 0.5524(4) 0.5019(4)
H19 H 0.8132 0.5537 0.4607
H20 H 0.7271 0.4913 0.5173
C20 C 0.3288(6) 0.6106(4) 0.4245(4)
H21 H 0.2419 0.6032 0.4476
C21 C 0.4652(6) 0.5807(4) 0.4799(4)
H22 H 0.4706 0.5544 0.5402
C22 C 0.5949(6) 0.5895(4) 0.4470(4)
C23 C 0.5780(6) 0.6321(4) 0.3604(4)
H23 H 0.6625 0.6414 0.3354
C24 C 0.4381(6) 0.6609(3) 0.3102(4)
H24 H 0.4298 0.6906 0.2514
C25 C -0.0293(6) 0.4944(4) 0.3117(4)
H25 H 0.0034 0.5243 0.3708
C26 C -0.1120(6) 0.4200(4) 0.3096(4)
H26 H -0.1319 0.3986 0.3669
C27 C -0.1664(6) 0.3760(3) 0.2235(4)
C28 C -0.1250(6) 0.4081(4) 0.1444(4)
H27 H -0.1547 0.3789 0.0847
C29 C -0.0397(6) 0.4833(4) 0.1527(4)
H28 H -0.0140 0.5046 0.0971
C30 C -0.2666(7) 0.2975(4) 0.2182(4)
H29 H -0.3496 0.3014 0.1594
H30 H -0.3108 0.2980 0.2739
C31 C -0.1832(7) 0.2119(3) 0.2172(4)
H31 H -0.0890 0.2136 0.2686
H32 H -0.2453 0.1645 0.2324
C32 C 0.0276(6) 0.1696(4) 0.0274(4)
H33 H 0.1285 0.1691 0.0228
C33 C -0.0004(6) 0.1883(4) 0.1143(4)
H34 H 0.0807 0.1994 0.1684
C34 C -0.1455(6) 0.1912(4) 0.1235(4)
C35 C -0.2590(6) 0.1713(3) 0.0427(4)
H35 H -0.3607 0.1713 0.0456
C36 C -0.2216(6) 0.1517(3) -0.0419(4)
H36 H -0.3001 0.1372 -0.0963
N1 N 1.4021(5) 0.4245(3) 0.9860(3)
N2 N 1.4173(5) 0.3547(3) 1.6292(3)
N3 N 1.2246(5) 0.4776(3) 0.7387(3)
N4 N 0.3149(5) 0.6492(3) 0.3403(3)
N5 N 0.0074(5) 0.5268(3) 0.2340(3)
N6 N -0.0820(5) 0.1519(3) -0.0514(3)
N7 N 1.5790(5) 0.5804(3) 0.7923(3)
N8 N 0.0628(5) 0.7556(3) 0.4355(3)
N9 N 1.3072(5) 0.2164(3) 0.8435(3)
N10 N 1.8296(5) 0.3589(3) 0.8740(3)
O1 O 1.5718(4) 0.5226(3) 0.7289(3)
O2 O 1.5218(4) 0.5638(2) 0.8612(3)
O3 O 1.6380(5) 0.6502(3) 0.7857(3)
O4 O 0.0971(4) 0.8092(3) 0.3792(3)
O5 O 0.0912(5) 0.7678(3) 0.5225(3)
O6 O -0.0008(4) 0.6853(2) 0.3993(3)
O7 O 1.7461(4) 0.3145(2) 0.8068(3)
O8 O 1.7736(4) 0.4196(2) 0.9096(3)
O9 O 1.9642(4) 0.3413(2) 0.9014(3)
O10 O 1.2388(5) 0.1491(3) 0.8531(4)
O11 O 1.2371(4) 0.2802(2) 0.7996(3)
O12 O 1.4462(4) 0.2204(2) 0.8776(3)
Pb1 Pb 1.465724(19) 0.400805(11) 0.815441(13)
Pb2 Pb 0.050787(19) 0.696846(11) 0.227967(13)
N2_2 N 1.4173(5) 0.3547(3) 0.6292(3)
N6A N 0.0820(5) 0.6519(3) 0.0514(3)
O7A O 0.2539(4) 0.8145(2) 0.1932(3)
O9A O 0.0358(4) 0.8413(2) 0.0986(3)
O10A O -0.2388(5) 0.6491(3) 0.1469(4)
O11A O -0.2371(4) 0.7802(2) 0.2004(3)
Pb1_2 Pb 1.465724(19) 0.400805(11) 1.815441(13)
Pb2A Pb -0.050787(19) 0.196846(11) -0.227967(13)
Pb2A_2 Pb 1.949213(19) 0.196846(11) 0.772033(13)
Pb2A_3 Pb 0.949213(19) 0.196846(11) 0.772033(13)
loop_
_geom_bond_atom_site_label_1
_geom_bond_atom_site_label_2
_geom_bond_site_symmetry_1
_geom_bond_site_symmetry_2
C1 H1 1_555 1_555
C2 C1 1_555 1_555
H2 C2 1_555 1_555
C3 C2 1_555 1_555
C4 C3 1_555 1_555
H3 C4 1_555 1_555
C5 C4 1_555 1_555
H4 C5 1_555 1_555
C6 C3 1_555 1_555
H5 C6 1_555 1_555
H6 C6 1_555 1_555
C7 C6 1_555 1_555
H7 C7 1_555 1_555
H8 C7 1_555 1_555
C8 H9 1_555 1_555
C9 C8 1_555 1_555
H10 C9 1_555 1_555
C10 C7 1_555 1_555
C11 C10 1_555 1_555
H11 C11 1_555 1_555
C12 C11 1_555 1_555
H12 C12 1_555 1_555
C13 H13 1_555 1_555
C14 C13 1_555 1_555
H14 C14 1_555 1_555
C15 C14 1_555 1_555
C16 C15 1_555 1_555
H15 C16 1_555 1_555
C17 C16 1_555 1_555
H16 C17 1_555 1_555
C18 C15 1_555 1_555
H17 C18 1_555 1_555
H18 C18 1_555 1_555
C19 C18 1_555 1_555
H19 C19 1_555 1_555
H20 C19 1_555 1_555
C20 H21 1_555 1_555
C21 C20 1_555 1_555
H22 C21 1_555 1_555
C22 C19 1_555 1_555
C23 C22 1_555 1_555
H23 C23 1_555 1_555
C24 C23 1_555 1_555
H24 C24 1_555 1_555
C25 H25 1_555 1_555
C26 C25 1_555 1_555
H26 C26 1_555 1_555
C27 C26 1_555 1_555
C28 C27 1_555 1_555
H27 C28 1_555 1_555
C29 C28 1_555 1_555
H28 C29 1_555 1_555
C30 C27 1_555 1_555
H29 C30 1_555 1_555
H30 C30 1_555 1_555
C31 C30 1_555 1_555
H31 C31 1_555 1_555
H32 C31 1_555 1_555
C32 H33 1_555 1_555
C33 C32 1_555 1_555
H34 C33 1_555 1_555
C34 C31 1_555 1_555
C35 C34 1_555 1_555
H35 C35 1_555 1_555
C36 C35 1_555 1_555
H36 C36 1_555 1_555
N1 C1 1_555 1_555
N2 C8 1_555 1_555
N3 C13 1_555 1_555
N4 C20 1_555 1_555
N5 C25 1_555 1_555
N6 C32 1_555 1_555
N7 O1 1_555 1_555
N8 O4 1_555 1_555
N9 O10 1_555 1_555
N10 O7 1_555 1_555
O1 Pb1 1_555 1_555
O2 N7 1_555 1_555
O3 N7 1_555 1_555
O4 Pb2 1_555 1_555
O5 N8 1_555 1_555
O6 N8 1_555 1_555
O7 Pb1 1_555 1_555
O8 N10 1_555 1_555
O9 N10 1_555 1_555
O10 Pb2A_3 1_555 1_555
O11 N9 1_555 1_555
O12 N9 1_555 1_555
Pb1 N1 1_555 1_555
Pb2 N4 1_555 1_555
N2_2 Pb1 1_555 1_555
N6A Pb2 1_555 1_555
O7A Pb2 1_555 1_555
O9A Pb2 1_555 1_555
O10A Pb2 1_555 1_555
O11A Pb2 1_555 1_555
Pb1_2 N2 1_555 1_555
Pb2A N6 1_555 1_555
Pb2A_2 O7 1_555 1_555
Pb2A_3 O11 1_555 1_555
C5 N1 1_555 1_555
C9 C10 1_555 1_555
C12 N2 1_555 1_555
C17 N3 1_555 1_555
C21 C22 1_555 1_555
C24 N4 1_555 1_555
C29 N5 1_555 1_555
C33 C34 1_555 1_555
C36 N6 1_555 1_555
N3 Pb1 1_555 1_555
N5 Pb2 1_555 1_555
O2 Pb1 1_555 1_555
O6 Pb2 1_555 1_555
O8 Pb1 1_555 1_555
O9 Pb2A_2 1_555 1_555
O11 Pb1 1_555 1_555

#END
