
#######################################################################
#
#                 Cambridge Crystallographic Data Centre
#                                CCDC 
#
#######################################################################
#
# If this CIF has been generated from an entry in the Cambridge 
# Structural Database, then it will include bibliographic, chemical, 
# crystal, experimental, refinement or atomic coordinate data resulting 
# from the CCDC's data processing and validation procedures.
#
#######################################################################

data_YUMGAP
_symmetry_cell_setting           triclinic
_symmetry_space_group_name_H-M   'P -1'
_symmetry_Int_Tables_number      2
_space_group_name_Hall           '-P 1'
loop_
_symmetry_equiv_pos_site_id
_symmetry_equiv_pos_as_xyz
1 x,y,z
2 -x,-y,-z
_cell_length_a                   8.1403(10)
_cell_length_b                   9.8137(12)
_cell_length_c                   13.0662(16)
_cell_angle_alpha                78.930(2)
_cell_angle_beta                 79.320(2)
_cell_angle_gamma                85.639(2)
_cell_volume                     1005.76
loop_
_atom_site_label
_atom_site_type_symbol
_atom_site_fract_x
_atom_site_fract_y
_atom_site_fract_z
Y1 Y 0.39642(4) 0.97621(3) 0.15579(2)
C1 C 0.4488(5) 1.2309(4) 0.3000(3)
H1 H 0.5577 1.2250 0.2632
C2 C 0.4102(5) 1.3293(4) 0.3658(3)
H2 H 0.4921 1.3860 0.3733
C3 C 0.2510(5) 1.3412(4) 0.4189(3)
H3 H 0.2230 1.4073 0.4623
C4 C 0.1299(4) 1.2542(4) 0.4082(3)
C5 C -0.0411(5) 1.2598(4) 0.4613(3)
H4 H -0.0756 1.3261 0.5039
C6 C -0.1519(5) 1.1714(4) 0.4506(3)
H5 H -0.2614 1.1770 0.4864
C7 C -0.1050(4) 1.0690(4) 0.3855(3)
C8 C -0.2153(4) 0.9716(4) 0.3754(3)
H6 H -0.3258 0.9740 0.4101
C9 C -0.1609(4) 0.8737(4) 0.3149(3)
H7 H -0.2327 0.8075 0.3089
C10 C 0.0041(4) 0.8740(4) 0.2621(3)
H8 H 0.0398 0.8072 0.2200
C11 C 0.0612(4) 1.0611(3) 0.3307(2)
C12 C 0.1796(4) 1.1563(3) 0.3414(2)
C13 C 0.7264(4) 0.7976(3) 0.0164(3)
C14 C 0.8452(4) 0.6966(3) 0.0689(2)
C15 C 1.0194(4) 0.6951(3) 0.0311(2)
C16 C 1.1174(4) 0.5926(4) 0.0830(3)
H9 H 1.2325 0.5895 0.0594
C17 C 1.0503(6) 0.4958(4) 0.1680(3)
H10 H 1.1193 0.4270 0.1998
C18 C 0.8809(5) 0.5002(4) 0.2061(3)
H11 H 0.8354 0.4361 0.2647
C19 C 0.7800(5) 0.6001(4) 0.1568(3)
H12 H 0.6656 0.6033 0.1827
C20 C 1.1042(4) 0.7988(4) -0.0606(3)
H13 H 1.0234 0.8729 -0.0795
H14 H 1.1390 0.7531 -0.1211
C21 C 1.2555(4) 0.8625(3) -0.0389(3)
N1 N 0.3395(3) 1.1456(3) 0.2870(2)
N2 N 0.1136(3) 0.9651(3) 0.2685(2)
N3 N 0.4170(3) 0.7396(3) 0.3246(2)
O1 O 0.4620(3) 0.8622(2) 0.32367(18)
O2 O 0.3532(3) 0.7234(3) 0.2480(2)
O3 O 0.4350(4) 0.6458(3) 0.3985(2)
O4 O 0.6029(3) 0.8469(3) 0.0739(2)
O5 O 0.7505(3) 0.8294(2) -0.08281(19)
O6 O 1.3756(3) 0.8892(2) -0.11547(18)
O7 O 1.2499(3) 0.8890(2) 0.05141(18)
Y1A Y 0.60358(4) 1.02379(3) -0.15579(2)
Y1A_2 Y 1.60358(4) 1.02379(3) -0.15579(2)
Y1_2 Y 1.39642(4) 0.97621(3) 0.15579(2)
O5A O 0.2495(3) 1.1706(2) 0.08281(19)
O6A O 0.6244(3) 1.1108(2) 0.11547(18)
O7_2 O 0.2499(3) 0.8890(2) 0.05141(18)
loop_
_geom_bond_atom_site_label_1
_geom_bond_atom_site_label_2
_geom_bond_site_symmetry_1
_geom_bond_site_symmetry_2
Y1 N1 1_555 1_555
C1 H1 1_555 1_555
C2 C1 1_555 1_555
H2 C2 1_555 1_555
C3 C2 1_555 1_555
H3 C3 1_555 1_555
C4 C3 1_555 1_555
C5 C4 1_555 1_555
H4 C5 1_555 1_555
C6 C5 1_555 1_555
H5 C6 1_555 1_555
C7 C6 1_555 1_555
C8 C7 1_555 1_555
H6 C8 1_555 1_555
C9 C8 1_555 1_555
H7 C9 1_555 1_555
C10 C9 1_555 1_555
H8 C10 1_555 1_555
C11 C7 1_555 1_555
C12 C4 1_555 1_555
C13 C14 1_555 1_555
C14 C15 1_555 1_555
C15 C16 1_555 1_555
C16 H9 1_555 1_555
C17 C16 1_555 1_555
H10 C17 1_555 1_555
C18 C17 1_555 1_555
H11 C18 1_555 1_555
C19 C14 1_555 1_555
H12 C19 1_555 1_555
C20 C15 1_555 1_555
H13 C20 1_555 1_555
H14 C20 1_555 1_555
C21 C20 1_555 1_555
N1 C1 1_555 1_555
N2 Y1 1_555 1_555
N3 O1 1_555 1_555
O1 Y1 1_555 1_555
O2 Y1 1_555 1_555
O3 N3 1_555 1_555
O4 Y1 1_555 1_555
O5 C13 1_555 1_555
O6 C21 1_555 1_555
O7 C21 1_555 1_555
Y1A O5 1_555 1_555
Y1A_2 O6 1_555 1_555
Y1_2 O7 1_555 1_555
O5A Y1 1_555 1_555
O6A Y1 1_555 1_555
O7_2 Y1 1_555 1_555
C10 N2 1_555 1_555
C11 C12 1_555 1_555
C11 N2 1_555 1_555
C12 N1 1_555 1_555
C13 O4 1_555 1_555
C18 C19 1_555 1_555
N3 O2 1_555 1_555

#END
