
#######################################################################
#
#                 Cambridge Crystallographic Data Centre
#                                CCDC 
#
#######################################################################
#
# If this CIF has been generated from an entry in the Cambridge 
# Structural Database, then it will include bibliographic, chemical, 
# crystal, experimental, refinement or atomic coordinate data resulting 
# from the CCDC's data processing and validation procedures.
#
#######################################################################

data_YUMHOE
_symmetry_cell_setting           monoclinic
_symmetry_space_group_name_H-M   'C 2/c'
_symmetry_Int_Tables_number      15
_space_group_name_Hall           '-C 2yn'
loop_
_symmetry_equiv_pos_site_id
_symmetry_equiv_pos_as_xyz
1 x,y,z
2 -x,y,1/2-z
3 1/2+x,1/2+y,z
4 1/2-x,1/2+y,1/2-z
5 -x,-y,-z
6 x,-y,1/2+z
7 1/2-x,1/2-y,-z
8 1/2+x,1/2-y,1/2+z
_cell_length_a                   49.3818(11)
_cell_length_b                   5.51965(12)
_cell_length_c                   8.49773(18)
_cell_angle_alpha                90
_cell_angle_beta                 127.5216(12)
_cell_angle_gamma                90
_cell_volume                     1837.06
loop_
_atom_site_label
_atom_site_type_symbol
_atom_site_fract_x
_atom_site_fract_y
_atom_site_fract_z
Ba1 Ba 0.50000 -0.1064(4) 1.25000
C1 C 0.3885(2) 0.110(3) 0.5803(18)
C2 C 0.35356(19) 0.075(2) 0.4265(19)
C3 C 0.3316(2) 0.249(2) 0.4165(16)
C4 C 0.3410(2) 0.453(2) 0.5398(18)
C5 C 0.3761(2) 0.463(2) 0.7010(19)
C6 C 0.39969(19) 0.281(2) 0.7362(17)
C7 C 0.2958(2) 0.257(2) 0.2199(16)
P1 P 0.44602(12) 0.3381(11) 0.9321(8)
O1 O 0.2745(2) 0.4015(19) 0.2262(17)
O2 O 0.2870(2) 0.0840(17) 0.1055(15)
O3 O 0.4655(2) 0.166(2) 0.8975(17)
O4 O 0.4527(2) 0.599(2) 0.9167(15)
O5 O 0.4542(3) 0.2879(19) 1.1284(19)
Ba1D Ba 0.50000 0.1064(4) 0.75000
Ba1_2 Ba 0.50000 0.8936(4) 1.25000
Ba1_3 Ba 0.50000 -1.1064(4) 1.25000
Ba1D_2 Ba 0.50000 -0.8936(4) 0.75000
C1_2 C 0.3885(2) -0.890(3) 0.5803(18)
C2_2 C 0.35356(19) -0.925(2) 0.4265(19)
C3_2 C 0.3316(2) -0.751(2) 0.4165(16)
C4_2 C 0.3410(2) -0.547(2) 0.5398(18)
C5_2 C 0.3761(2) -0.537(2) 0.7010(19)
C6_2 C 0.39969(19) -0.719(2) 0.7362(17)
C7_2 C 0.2958(2) -0.743(2) 0.2199(16)
P1_2 P 0.44602(12) -0.6619(11) 0.9321(8)
O1_2 O 0.2745(2) -0.5985(19) 0.2262(17)
O2_2 O 0.2870(2) -0.9160(17) 0.1055(15)
O3_2 O 0.4655(2) -0.834(2) 0.8975(17)
O3D O 0.5345(2) -0.166(2) 1.1025(17)
O3E O 0.4655(2) -0.166(2) 1.3975(17)
O3A O 0.5345(2) 0.166(2) 1.6025(17)
O4_2 O 0.4527(2) -0.401(2) 0.9167(15)
O4A O 0.5473(2) -0.401(2) 1.5833(15)
O5_2 O 0.4542(3) -0.7121(19) 1.1284(19)
O5A O 0.5458(3) 0.2879(19) 1.3716(19)
loop_
_geom_bond_atom_site_label_1
_geom_bond_atom_site_label_2
_geom_bond_site_symmetry_1
_geom_bond_site_symmetry_2
Ba1 O3 1_555 1_555
C1 C2 1_555 1_555
C2 C3 1_555 1_555
C3 C4 1_555 1_555
C4 C5 1_555 1_555
C5 C6 1_555 1_555
C6 C1 1_555 1_555
C7 C3 1_555 1_555
P1 C6 1_555 1_555
O1 C7 1_555 1_555
O2 C7 1_555 1_555
O3 P1 1_555 1_555
O4 P1 1_555 1_555
O5 Ba1 1_555 1_555
Ba1D O3 1_555 1_555
Ba1_2 O4 1_555 1_555
Ba1_3 O3_2 1_555 1_555
Ba1D_2 O3_2 1_555 1_555
C1_2 C2_2 1_555 1_555
C2_2 C3_2 1_555 1_555
C3_2 C4_2 1_555 1_555
C4_2 C5_2 1_555 1_555
C5_2 C6_2 1_555 1_555
C6_2 C1_2 1_555 1_555
C7_2 C3_2 1_555 1_555
P1_2 C6_2 1_555 1_555
O1_2 C7_2 1_555 1_555
O2_2 C7_2 1_555 1_555
O3_2 P1_2 1_555 1_555
O3D Ba1 1_555 1_555
O3E Ba1 1_555 1_555
O3A Ba1 1_555 1_555
O4_2 Ba1 1_555 1_555
O4A Ba1 1_555 1_555
O5_2 Ba1_3 1_555 1_555
O5A Ba1 1_555 1_555
P1 O5 1_555 1_555
Ba1D O3D 1_555 1_555
P1_2 O4_2 1_555 1_555
P1_2 O5_2 1_555 1_555

#END
