
#######################################################################
#
#                 Cambridge Crystallographic Data Centre
#                                CCDC 
#
#######################################################################
#
# If this CIF has been generated from an entry in the Cambridge 
# Structural Database, then it will include bibliographic, chemical, 
# crystal, experimental, refinement or atomic coordinate data resulting 
# from the CCDC's data processing and validation procedures.
#
#######################################################################

data_YUMHOE01
_symmetry_cell_setting           monoclinic
_symmetry_space_group_name_H-M   'C 2/c'
_symmetry_Int_Tables_number      15
_space_group_name_Hall           '-C 2yn'
loop_
_symmetry_equiv_pos_site_id
_symmetry_equiv_pos_as_xyz
1 x,y,z
2 -x,y,1/2-z
3 1/2+x,1/2+y,z
4 1/2-x,1/2+y,1/2-z
5 -x,-y,-z
6 x,-y,1/2+z
7 1/2-x,1/2-y,-z
8 1/2+x,1/2-y,1/2+z
_cell_length_a                   77.220(3)
_cell_length_b                   5.4590(2)
_cell_length_c                   8.5184(3)
_cell_angle_alpha                90
_cell_angle_beta                 96.33
_cell_angle_gamma                90
_cell_volume                     3568.99
loop_
_atom_site_label
_atom_site_type_symbol
_atom_site_fract_x
_atom_site_fract_y
_atom_site_fract_z
Ba1 Ba 0.622739(6) 0.38382(8) 0.26282(5)
P1 P 0.65070(3) 0.8249(4) 0.1598(3)
P2 P 0.59631(3) 0.8502(4) 0.3600(3)
O1 O 0.64002(9) 0.6569(11) 0.0452(8)
O2 O 0.64720(7) 0.7892(12) 0.3284(7)
O3 O 0.64644(10) 1.1020(10) 0.1230(9)
H1 H 0.6468 1.1280 0.0286
O4 O 0.73712(12) 0.900(2) 0.1225(17)
H2 H 0.7473 0.8826 0.0941
O5 O 0.73111(13) 0.5924(19) -0.0408(16)
O6 O 0.60606(9) 0.8502(11) 0.2148(9)
O7 O 0.60329(9) 0.6657(11) 0.4805(8)
O8 O 0.59744(10) 1.1207(10) 0.4231(9)
H3 H 0.6005 1.1205 0.5220
O9 O 0.51365(10) 0.7718(18) 0.0119(13)
H4 H 0.5038 0.7142 -0.0235
O10 O 0.51624(14) 0.4090(18) 0.1327(18)
C1 C 0.72697(14) 0.745(2) 0.0552(17)
C2 C 0.70851(12) 0.7543(19) 0.0910(12)
C3 C 0.69630(13) 0.5833(18) 0.0153(16)
H5 H 0.6999 0.4624 -0.0509
C4 C 0.67889(13) 0.6018(15) 0.0429(14)
H6 H 0.6708 0.4877 -0.0015
C5 C 0.67354(10) 0.7876(17) 0.1352(11)
C6 C 0.68554(12) 0.952(2) 0.2098(14)
H7 H 0.6819 1.0706 0.2772
C7 C 0.70317(15) 0.939(3) 0.1831(16)
H8 H 0.7111 1.0538 0.2277
C8 C 0.52176(17) 0.6139(18) 0.1063(17)
C9 C 0.53960(13) 0.6836(19) 0.1767(12)
C10 C 0.54849(12) 0.532(2) 0.2859(13)
H9 H 0.5430 0.3917 0.3179
C11 C 0.56536(14) 0.5804(18) 0.3497(13)
H10 H 0.5712 0.4757 0.4238
C12 C 0.57359(10) 0.7939(16) 0.2993(10)
C13 C 0.56410(12) 0.9515(19) 0.1914(12)
H11 H 0.5694 1.0942 0.1607
C14 C 0.54758(16) 0.9022(17) 0.1311(15)
H12 H 0.5415 1.0101 0.0606
Ba1E Ba 0.622739(6) 0.61618(8) -0.23718(5)
Ba1_2 Ba 0.622739(6) 1.38382(8) 0.26282(5)
Ba1E_2 Ba 0.622739(6) 0.61618(8) 0.76282(5)
O1E O 0.64002(9) 0.3431(11) 0.5452(8)
O3_2 O 0.64644(10) 0.1020(10) 0.1230(9)
H1_2 H 0.6468 0.1280 0.0286
O7E O 0.60329(9) 0.3343(11) -0.0195(8)
O8_2 O 0.59744(10) 0.1207(10) 0.4231(9)
H3_2 H 0.6005 0.1205 0.5220
loop_
_geom_bond_atom_site_label_1
_geom_bond_atom_site_label_2
_geom_bond_site_symmetry_1
_geom_bond_site_symmetry_2
Ba1 O1 1_555 1_555
P1 O1 1_555 1_555
P2 O6 1_555 1_555
O1 Ba1E 1_555 1_555
O2 Ba1 1_555 1_555
O3 P1 1_555 1_555
H1 O3 1_555 1_555
O4 H2 1_555 1_555
O5 C1 1_555 1_555
O6 Ba1 1_555 1_555
O7 Ba1 1_555 1_555
O8 P2 1_555 1_555
H3 O8 1_555 1_555
O9 H4 1_555 1_555
O10 C8 1_555 1_555
C1 O4 1_555 1_555
C2 C1 1_555 1_555
C3 C2 1_555 1_555
H5 C3 1_555 1_555
C4 C3 1_555 1_555
H6 C4 1_555 1_555
C5 P1 1_555 1_555
C6 C5 1_555 1_555
H7 C6 1_555 1_555
C7 C2 1_555 1_555
H8 C7 1_555 1_555
C8 O9 1_555 1_555
C9 C8 1_555 1_555
C10 C9 1_555 1_555
H9 C10 1_555 1_555
C11 C10 1_555 1_555
H10 C11 1_555 1_555
C12 P2 1_555 1_555
C13 C12 1_555 1_555
H11 C13 1_555 1_555
C14 C9 1_555 1_555
H12 C14 1_555 1_555
Ba1E O7E 1_555 1_555
Ba1_2 O3 1_555 1_555
Ba1E_2 O7 1_555 1_555
O1E Ba1 1_555 1_555
O3_2 Ba1 1_555 1_555
H1_2 O3_2 1_555 1_555
O7E Ba1 1_555 1_555
O8_2 Ba1 1_555 1_555
H3_2 O8_2 1_555 1_555
P1 O2 1_555 1_555
P2 O7 1_555 1_555
O8 Ba1_2 1_555 1_555
C4 C5 1_555 1_555
C6 C7 1_555 1_555
C11 C12 1_555 1_555
C13 C14 1_555 1_555
Ba1E_2 O1E 1_555 1_555

#END
