
#######################################################################
#
#                 Cambridge Crystallographic Data Centre
#                                CCDC 
#
#######################################################################
#
# If this CIF has been generated from an entry in the Cambridge 
# Structural Database, then it will include bibliographic, chemical, 
# crystal, experimental, refinement or atomic coordinate data resulting 
# from the CCDC's data processing and validation procedures.
#
#######################################################################

data_YUMVEJ
_symmetry_cell_setting           monoclinic
_symmetry_space_group_name_H-M   'P 21/n'
_symmetry_Int_Tables_number      14
_space_group_name_Hall           '-P 2yn'
loop_
_symmetry_equiv_pos_site_id
_symmetry_equiv_pos_as_xyz
1 x,y,z
2 1/2-x,1/2+y,1/2-z
3 -x,-y,-z
4 1/2+x,1/2-y,1/2+z
_cell_length_a                   12.0276(11)
_cell_length_b                   5.2148(4)
_cell_length_c                   17.8366(16)
_cell_angle_alpha                90
_cell_angle_beta                 91.7730(10)
_cell_angle_gamma                90
_cell_volume                     1118.2
loop_
_atom_site_label
_atom_site_type_symbol
_atom_site_fract_x
_atom_site_fract_y
_atom_site_fract_z
Ag1 Ag 0.90386(4) 0.84476(8) 0.40662(2)
Ag2 Ag 0.82105(3) 0.38594(7) 0.46957(2)
O1 O 0.3134(3) 0.2245(7) 0.84219(17)
O2 O 0.4098(3) -0.1083(6) 0.80021(19)
O3 O 0.7650(3) -0.0427(7) 0.49500(19)
O4 O 0.6551(3) -0.3819(7) 0.4854(2)
O5 O 1.0181(4) 1.2297(12) 0.4540(2)
O6 O 1.0721(4) 1.1385(10) 0.3466(3)
O7 O 1.1320(5) 1.4753(11) 0.4018(3)
N1 N 0.4644(3) 0.1440(7) 0.6715(2)
N2 N 1.0769(3) 1.2822(9) 0.3994(2)
C1 C 0.5641(4) 0.2537(9) 0.6617(2)
H1 H 0.5849 0.3973 0.6897
C2 C 0.6352(4) 0.1544(9) 0.6106(2)
H2 H 0.7034 0.2330 0.6033
C3 C 0.6060(3) -0.0609(8) 0.5702(2)
C4 C 0.5046(4) -0.1745(8) 0.5834(2)
H3 H 0.4838 -0.3232 0.5578
C5 C 0.4347(4) -0.0685(9) 0.6341(2)
H4 H 0.3663 -0.1447 0.6426
C6 C 0.3853(4) 0.2608(10) 0.7230(2)
H5 H 0.3137 0.2782 0.6970
H6 H 0.4112 0.4317 0.7361
C7 C 0.3699(4) 0.1081(9) 0.7952(2)
C8 C 0.6817(4) -0.1715(9) 0.5117(2)
Ag1_2 Ag 0.90386(4) -0.15524(8) 0.40662(2)
Ag1B Ag 1.09614(4) 1.15524(8) 0.59338(2)
Ag1C Ag 0.40386(4) -0.34476(8) 0.90662(2)
Ag2_2 Ag 0.82105(3) -0.61406(7) 0.46957(2)
Ag2_3 Ag 0.82105(3) 1.38594(7) 0.46957(2)
Ag2B Ag 1.17895(3) 1.61406(7) 0.53043(2)
Ag2C Ag 0.32105(3) 0.11406(7) 0.96957(2)
O1C O 0.8134(3) 0.2755(7) 0.34219(17)
O2C O 0.9098(3) 0.6083(6) 0.30021(19)
O3_2 O 0.7650(3) 0.9573(7) 0.49500(19)
O4_2 O 0.6551(3) 0.6181(7) 0.4854(2)
O5_2 O 1.0181(4) 0.2297(12) 0.4540(2)
O5B O 0.9819(4) 0.7703(12) 0.5460(2)
O7B O 0.8680(5) 0.5247(11) 0.5982(3)
O8 O 0.6821(4) 0.7378(10) 0.7490(3)
H7 H 0.651(6) 0.785(16) 0.787(3)
H8 H 0.719(6) 0.846(12) 0.728(4)
loop_
_geom_bond_atom_site_label_1
_geom_bond_atom_site_label_2
_geom_bond_site_symmetry_1
_geom_bond_site_symmetry_2
Ag1 Ag2 1_555 1_555
Ag2 O3 1_555 1_555
O1 C7 1_555 1_555
O2 C7 1_555 1_555
O3 C8 1_555 1_555
O4 C8 1_555 1_555
O5 Ag1 1_555 1_555
O6 N2 1_555 1_555
O7 N2 1_555 1_555
N1 C1 1_555 1_555
N2 O5 1_555 1_555
C1 H1 1_555 1_555
C2 C1 1_555 1_555
H2 C2 1_555 1_555
C3 C2 1_555 1_555
C4 C3 1_555 1_555
H3 C4 1_555 1_555
C5 N1 1_555 1_555
H4 C5 1_555 1_555
C6 N1 1_555 1_555
H5 C6 1_555 1_555
H6 C6 1_555 1_555
C7 C6 1_555 1_555
C8 C3 1_555 1_555
O8 H7 1_555 1_555
H8 O8 1_555 1_555
Ag1_2 Ag2 1_555 1_555
Ag1B O5 1_555 1_555
Ag1C O2 1_555 1_555
Ag2_2 O4 1_555 1_555
Ag2_3 Ag1 1_555 1_555
Ag2B O7 1_555 1_555
Ag2C O1 1_555 1_555
O1C Ag2 1_555 1_555
O2C Ag1 1_555 1_555
O3_2 Ag1 1_555 1_555
O4_2 Ag2 1_555 1_555
O5_2 Ag2 1_555 1_555
O5B Ag1 1_555 1_555
O7B Ag2 1_555 1_555
O3 Ag1_2 1_555 1_555
O5 Ag2_3 1_555 1_555
C4 C5 1_555 1_555
Ag1_2 Ag2_2 1_555 1_555
Ag1_2 O5_2 1_555 1_555
Ag1B Ag2B 1_555 1_555
Ag1B O5B 1_555 1_555
Ag1C Ag2C 1_555 1_555
Ag2_3 O3_2 1_555 1_555

#END
