
#######################################################################
#
#                 Cambridge Crystallographic Data Centre
#                                CCDC 
#
#######################################################################
#
# If this CIF has been generated from an entry in the Cambridge 
# Structural Database, then it will include bibliographic, chemical, 
# crystal, experimental, refinement or atomic coordinate data resulting 
# from the CCDC's data processing and validation procedures.
#
#######################################################################

data_YUNFIX
_symmetry_cell_setting           monoclinic
_symmetry_space_group_name_H-M   'C 2/c'
_symmetry_Int_Tables_number      15
_space_group_name_Hall           '-C 2yn'
loop_
_symmetry_equiv_pos_site_id
_symmetry_equiv_pos_as_xyz
1 x,y,z
2 -x,y,1/2-z
3 1/2+x,1/2+y,z
4 1/2-x,1/2+y,1/2-z
5 -x,-y,-z
6 x,-y,1/2+z
7 1/2-x,1/2-y,-z
8 1/2+x,1/2-y,1/2+z
_cell_length_a                   15.243(3)
_cell_length_b                   15.835(3)
_cell_length_c                   9.3480(19)
_cell_angle_alpha                90
_cell_angle_beta                 103.49(3)
_cell_angle_gamma                90
_cell_volume                     2194.1
loop_
_atom_site_label
_atom_site_type_symbol
_atom_site_fract_x
_atom_site_fract_y
_atom_site_fract_z
Pb1 Pb 0.5000 0.43694(2) 0.2500
I1 I 0.37911(4) 0.57258(3) -0.00239(6)
N1 N 0.3529(4) 0.2361(4) -0.0800(6)
C1 C 0.3889(5) 0.3105(4) -0.0273(8)
H1 H 0.3999 0.3540 -0.0877
N2 N 0.4072(4) 0.3166(3) 0.1156(6)
C2 C 0.3490(5) 0.1878(4) 0.0409(8)
C3 C 0.5000 0.2045(8) -0.2500
C4 C 0.3829(5) 0.2377(4) 0.1628(8)
C5 C 0.3370(6) 0.2063(5) -0.2321(8)
H2 H 0.3297 0.2542 -0.2985
H3 H 0.2821 0.1731 -0.2561
C6 C 0.4164(6) 0.1525(5) -0.2515(9)
H4 H 0.4303 0.1111 -0.1730
H5 H 0.3994 0.1222 -0.3440
C7 C 0.3178(5) 0.1063(5) 0.0526(8)
H6 H 0.2968 0.0731 -0.0304
C8 C 0.3867(6) 0.2070(5) 0.3034(9)
H7 H 0.4085 0.2399 0.3865
C9 C 0.3190(7) 0.0760(5) 0.1916(11)
H8 H 0.2950 0.0232 0.2033
C10 C 0.3565(6) 0.1253(5) 0.3144(9)
H9 H 0.3614 0.1023 0.4075
H10 H 0.512(5) 0.257(4) -0.179(7)
Pb1D Pb 0.5000 0.56306(2) -0.2500
Pb1_2 Pb 0.5000 0.43694(2) -0.7500
I1A I 0.62089(4) 0.57258(3) 0.50239(6)
I1D I 0.62089(4) 0.42742(3) 0.00239(6)
I1E I 0.37911(4) 0.42742(3) 0.49761(6)
N1A N 0.6471(4) 0.2361(4) -0.4200(6)
C1A C 0.6111(5) 0.3105(4) -0.4727(8)
H1A H 0.6001 0.3540 -0.4123
N2A N 0.5928(4) 0.3166(3) -0.6156(6)
N2A_2 N 0.5928(4) 0.3166(3) 0.3844(6)
C2A C 0.6510(5) 0.1878(4) -0.5409(8)
C4A C 0.6171(5) 0.2377(4) -0.6628(8)
C5A C 0.6630(6) 0.2063(5) -0.2679(8)
H2A H 0.6703 0.2542 -0.2015
H3A H 0.7179 0.1731 -0.2439
C6A C 0.5836(6) 0.1525(5) -0.2485(9)
H4A H 0.5697 0.1111 -0.3270
H5A H 0.6006 0.1222 -0.1560
C7A C 0.6822(5) 0.1063(5) -0.5526(8)
H6A H 0.7032 0.0731 -0.4696
C8A C 0.6133(6) 0.2070(5) -0.8034(9)
H7A H 0.5915 0.2399 -0.8865
C9A C 0.6810(7) 0.0760(5) -0.6916(11)
H8A H 0.7050 0.0232 -0.7033
C10A C 0.6435(6) 0.1253(5) -0.8144(9)
H9A H 0.6386 0.1023 -0.9075
H10A H 0.488(5) 0.257(4) -0.321(7)
loop_
_geom_bond_atom_site_label_1
_geom_bond_atom_site_label_2
_geom_bond_site_symmetry_1
_geom_bond_site_symmetry_2
Pb1 I1 1_555 1_555
I1 Pb1D 1_555 1_555
N1 C1 1_555 1_555
C1 H1 1_555 1_555
N2 Pb1 1_555 1_555
C2 N1 1_555 1_555
C3 C6 1_555 1_555
C4 N2 1_555 1_555
C5 N1 1_555 1_555
H2 C5 1_555 1_555
H3 C5 1_555 1_555
C6 C5 1_555 1_555
H4 C6 1_555 1_555
H5 C6 1_555 1_555
C7 C2 1_555 1_555
H6 C7 1_555 1_555
C8 C4 1_555 1_555
H7 C8 1_555 1_555
C9 C7 1_555 1_555
H8 C9 1_555 1_555
C10 C8 1_555 1_555
H9 C10 1_555 1_555
H10 C3 1_555 1_555
Pb1D I1D 1_555 1_555
Pb1_2 N2A 1_555 1_555
I1A Pb1 1_555 1_555
I1D Pb1 1_555 1_555
I1E Pb1 1_555 1_555
N1A C1A 1_555 1_555
C1A H1A 1_555 1_555
N2A C1A 1_555 1_555
N2A_2 Pb1 1_555 1_555
C2A N1A 1_555 1_555
C4A N2A 1_555 1_555
C5A N1A 1_555 1_555
H2A C5A 1_555 1_555
H3A C5A 1_555 1_555
C6A C3 1_555 1_555
H4A C6A 1_555 1_555
H5A C6A 1_555 1_555
C7A C2A 1_555 1_555
H6A C7A 1_555 1_555
C8A C4A 1_555 1_555
H7A C8A 1_555 1_555
C9A C7A 1_555 1_555
H8A C9A 1_555 1_555
C10A C8A 1_555 1_555
H9A C10A 1_555 1_555
H10A C3 1_555 1_555
C1 N2 1_555 1_555
C2 C4 1_555 1_555
C9 C10 1_555 1_555
C2A C4A 1_555 1_555
C5A C6A 1_555 1_555
C9A C10A 1_555 1_555

#END
