
#######################################################################
#
#                 Cambridge Crystallographic Data Centre
#                                CCDC 
#
#######################################################################
#
# If this CIF has been generated from an entry in the Cambridge 
# Structural Database, then it will include bibliographic, chemical, 
# crystal, experimental, refinement or atomic coordinate data resulting 
# from the CCDC's data processing and validation procedures.
#
#######################################################################

data_YUNHIZ
_symmetry_cell_setting           monoclinic
_symmetry_space_group_name_H-M   'C 2/c'
_symmetry_Int_Tables_number      15
_space_group_name_Hall           '-C 2yn'
loop_
_symmetry_equiv_pos_site_id
_symmetry_equiv_pos_as_xyz
1 x,y,z
2 1/2+x,1/2+y,z
3 -x,y,1/2-z
4 1/2-x,1/2+y,1/2-z
5 -x,-y,-z
6 1/2-x,1/2-y,-z
7 x,-y,1/2+z
8 1/2+x,1/2-y,1/2+z
_cell_length_a                   12.5940(10)
_cell_length_b                   16.1660(10)
_cell_length_c                   8.9100(10)
_cell_angle_alpha                90
_cell_angle_beta                 122.59
_cell_angle_gamma                90
_cell_volume                     1528.4
loop_
_atom_site_label
_atom_site_type_symbol
_atom_site_fract_x
_atom_site_fract_y
_atom_site_fract_z
N1 N 0.4409(11) 0.4534(6) 0.9047(14)
O6 O 0.3626(11) 0.5006(6) 0.9111(15)
O7 O 0.5459(14) 0.4747(8) 0.962(2)
O8 O 0.4048(6) 0.3901(3) 0.8077(9)
N1D N 0.5591(11) 0.5466(6) 1.0953(14)
O6D O 0.6374(11) 0.4994(6) 1.0889(15)
O7D O 0.4541(14) 0.5253(8) 1.038(2)
O8D O 0.5952(6) 0.6099(3) 1.1923(9)
Pr1 Pr 0.5000 0.129702(17) -0.2500
O1 O 0.2892(3) 0.1829(2) -0.3065(5)
O2 O 0.3849(4) 0.0890(2) -0.0997(5)
O3 O 0.5000 -0.0276(3) -0.2500
O4 O 0.4446(4) 0.2506(3) -0.4486(5)
O5 O 0.3401(4) 0.0791(3) -0.5528(6)
C1 C 0.2923(6) 0.1404(3) -0.1892(8)
C2 C 0.1956(6) 0.1506(4) -0.1427(9)
H1 H 0.1136 0.1365 -0.2459
H2 H 0.2137 0.1118 -0.0485
C3 C 0.1898(6) 0.2374(4) -0.0820(9)
H3 H 0.1225 0.2399 -0.0595
H4 H 0.1698 0.2762 -0.1768
H5 H 0.550(8) -0.055(5) -0.133(10)
H6 H 0.396(7) 0.282(5) -0.504(12)
H7 H 0.542(6) 0.277(6) -0.343(11)
H8 H 0.340(9) 0.031(4) -0.605(13)
H9 H 0.262(7) 0.099(5) -0.636(12)
Pr1E Pr 0.0000 0.370298(17) 0.2500
O1E O 0.2108(3) 0.3171(2) 0.3065(5)
O1B O 0.7108(3) 0.1829(2) -0.1935(5)
O2E O 0.1151(4) 0.4110(2) 0.0997(5)
O2B O 0.6151(4) 0.0890(2) -0.4003(5)
O4B O 0.5554(4) 0.2506(3) -0.0514(5)
O5B O 0.6599(4) 0.0791(3) 0.0528(6)
C1E C 0.2077(6) 0.3596(3) 0.1892(8)
C2E C 0.3044(6) 0.3494(4) 0.1427(9)
H1E H 0.3864 0.3635 0.2459
H2E H 0.2863 0.3882 0.0485
C3E C 0.3102(6) 0.2626(4) 0.0820(9)
H3E H 0.3775 0.2601 0.0595
H4E H 0.3302 0.2238 0.1768
H5B H 0.450(8) -0.055(5) -0.367(10)
H6B H 0.604(7) 0.282(5) 0.004(12)
H7B H 0.458(6) 0.277(6) -0.157(11)
H8B H 0.660(9) 0.031(4) 0.105(13)
H9B H 0.738(7) 0.099(5) 0.136(12)
loop_
_geom_bond_atom_site_label_1
_geom_bond_atom_site_label_2
_geom_bond_site_symmetry_1
_geom_bond_site_symmetry_2
Pr1 O1 1_555 1_555
O1 C1 1_555 1_555
O2 Pr1 1_555 1_555
O3 Pr1 1_555 1_555
O4 Pr1 1_555 1_555
O5 Pr1 1_555 1_555
C1 O2 1_555 1_555
C2 C1 1_555 1_555
H1 C2 1_555 1_555
H2 C2 1_555 1_555
C3 C2 1_555 1_555
H3 C3 1_555 1_555
H4 C3 1_555 1_555
H5 O3 1_555 1_555
H6 O4 1_555 1_555
H7 O4 1_555 1_555
H8 O5 1_555 1_555
H9 O5 1_555 1_555
N1 O6 1_555 1_555
O6 O7D 1_555 1_555
O7 N1 1_555 1_555
O8 N1 1_555 1_555
Pr1E O1E 1_555 1_555
O1E C1E 1_555 1_555
O1B Pr1 1_555 1_555
O2E Pr1E 1_555 1_555
O2B Pr1 1_555 1_555
O4B Pr1 1_555 1_555
O5B Pr1 1_555 1_555
C1E O2E 1_555 1_555
C2E C1E 1_555 1_555
H1E C2E 1_555 1_555
H2E C2E 1_555 1_555
C3E C3 1_555 1_555
H3E C3E 1_555 1_555
H4E C3E 1_555 1_555
H5B O3 1_555 1_555
H6B O4B 1_555 1_555
H7B O4B 1_555 1_555
H8B O5B 1_555 1_555
H9B O5B 1_555 1_555
N1D O7 1_555 1_555
O6D O7 1_555 1_555
O7D N1 1_555 1_555
O8D N1D 1_555 1_555
C2E C3E 1_555 1_555
N1D O6D 1_555 1_555
N1D O7D 1_555 1_555

#END
