
#######################################################################
#
#                 Cambridge Crystallographic Data Centre
#                                CCDC 
#
#######################################################################
#
# If this CIF has been generated from an entry in the Cambridge 
# Structural Database, then it will include bibliographic, chemical, 
# crystal, experimental, refinement or atomic coordinate data resulting 
# from the CCDC's data processing and validation procedures.
#
#######################################################################

data_YUNHUL
_symmetry_cell_setting           monoclinic
_symmetry_space_group_name_H-M   'C c'
_symmetry_Int_Tables_number      9
_space_group_name_Hall           'C -2yc'
loop_
_symmetry_equiv_pos_site_id
_symmetry_equiv_pos_as_xyz
1 x,y,z
2 x,-y,1/2+z
3 1/2+x,1/2+y,z
4 1/2+x,1/2-y,1/2+z
_cell_length_a                   13.288(4)
_cell_length_b                   14.090(4)
_cell_length_c                   6.750(2)
_cell_angle_alpha                90
_cell_angle_beta                 108.594(4)
_cell_angle_gamma                90
_cell_volume                     1197.82
loop_
_atom_site_label
_atom_site_type_symbol
_atom_site_fract_x
_atom_site_fract_y
_atom_site_fract_z
Cu1 Cu 1.09678(6) 0.00359(3) 0.08240(10)
O1 O 1.0979(3) -0.06236(17) 0.3306(5)
H1 H 1.064(3) -0.1136(17) 0.312(8)
N1 N 0.9171(3) 0.0543(2) 0.0246(5)
N2 N 0.7246(2) 0.2519(2) -0.0738(5)
N3 N 0.6451(3) 0.3786(2) -0.2315(5)
N4 N 0.6585(3) 0.3869(2) -0.0214(5)
C1 C 0.6997(3) 0.0800(3) -0.0726(7)
H2 H 0.6269 0.0891 -0.1056
C2 C 0.7422(4) -0.0096(3) -0.0511(8)
H3 H 0.6988 -0.0627 -0.0676
C3 C 0.8493(4) -0.0193(3) -0.0049(7)
H4 H 0.8771 -0.0804 0.0071
C4 C 0.8762(3) 0.1408(3) 0.0043(6)
H5 H 0.9214 0.1928 0.0230
C5 C 0.7683(3) 0.1562(3) -0.0439(6)
C6 C 0.6847(3) 0.2966(3) -0.2566(7)
H6 H 0.6851 0.2724 -0.3845
C7 C 0.7063(3) 0.3103(3) 0.0699(6)
H7 H 0.7250 0.2978 0.2123
Cu1A Cu 1.09678(6) -0.00359(3) 0.58240(10)
Cu1C Cu 0.59678(6) 0.49641(3) -0.41760(10)
Cu1B Cu 0.59678(6) 0.50359(3) 0.08240(10)
O1A O 1.0979(3) 0.06236(17) -0.1694(5)
H1A H 1.064(3) 0.1136(17) -0.188(8)
N3C N 1.1451(3) 0.1214(2) 0.2685(5)
N4B N 1.1585(3) -0.1131(2) -0.0214(5)
S1 S 0.44813(9) 0.20793(7) 0.07315(17)
F1 F 0.3374(2) 0.0540(2) 0.0461(7)
F2 F 0.4063(3) 0.1059(3) 0.3533(7)
F3 F 0.5031(3) 0.0369(2) 0.1962(7)
O2 O 0.3492(3) 0.2574(2) 0.0372(6)
O3 O 0.4741(3) 0.1870(3) -0.1103(6)
O4 O 0.5337(3) 0.2435(3) 0.2446(6)
C8 C 0.4233(4) 0.0948(3) 0.1738(10)
loop_
_geom_bond_atom_site_label_1
_geom_bond_atom_site_label_2
_geom_bond_site_symmetry_1
_geom_bond_site_symmetry_2
Cu1 O1 1_555 1_555
O1 H1 1_555 1_555
N1 Cu1 1_555 1_555
N2 C5 1_555 1_555
N3 N4 1_555 1_555
N4 C7 1_555 1_555
C1 H2 1_555 1_555
C2 C1 1_555 1_555
H3 C2 1_555 1_555
C3 N1 1_555 1_555
H4 C3 1_555 1_555
C4 N1 1_555 1_555
H5 C4 1_555 1_555
C5 C1 1_555 1_555
C6 N2 1_555 1_555
H6 C6 1_555 1_555
C7 N2 1_555 1_555
H7 C7 1_555 1_555
S1 O2 1_555 1_555
F1 C8 1_555 1_555
F2 C8 1_555 1_555
F3 C8 1_555 1_555
O3 S1 1_555 1_555
O4 S1 1_555 1_555
C8 S1 1_555 1_555
Cu1A O1 1_555 1_555
Cu1C N3 1_555 1_555
Cu1B N4 1_555 1_555
O1A Cu1 1_555 1_555
H1A O1A 1_555 1_555
N3C Cu1 1_555 1_555
N4B Cu1 1_555 1_555
N3 C6 1_555 1_555
C2 C3 1_555 1_555
C4 C5 1_555 1_555

#END
