
#######################################################################
#
#                 Cambridge Crystallographic Data Centre
#                                CCDC 
#
#######################################################################
#
# If this CIF has been generated from an entry in the Cambridge 
# Structural Database, then it will include bibliographic, chemical, 
# crystal, experimental, refinement or atomic coordinate data resulting 
# from the CCDC's data processing and validation procedures.
#
#######################################################################

data_YUNJOH
_symmetry_cell_setting           orthorhombic
_symmetry_space_group_name_H-M   'P 21 21 21'
_symmetry_Int_Tables_number      19
_space_group_name_Hall           'P 2ac 2ab'
loop_
_symmetry_equiv_pos_site_id
_symmetry_equiv_pos_as_xyz
1 x,y,z
2 1/2-x,-y,1/2+z
3 -x,1/2+y,1/2-z
4 1/2+x,1/2-y,-z
_cell_length_a                   6.592(2)
_cell_length_b                   9.430(3)
_cell_length_c                   15.185(5)
_cell_angle_alpha                90
_cell_angle_beta                 90
_cell_angle_gamma                90
_cell_volume                     943.938
loop_
_atom_site_label
_atom_site_type_symbol
_atom_site_fract_x
_atom_site_fract_y
_atom_site_fract_z
Cu1 Cu 0.24089(3) 0.27381(3) 0.002190(16)
O1 O -0.01603(19) 0.27052(18) 0.06137(11)
H1 H -0.0258 0.3246 0.1060
N1 N 0.0897(3) 0.3199(2) -0.10878(12)
N2 N -0.1172(2) 0.3026(2) -0.10978(12)
N3 N -0.0169(3) 0.3532(2) -0.24255(12)
N4 N 0.1212(3) 0.5025(2) -0.45808(13)
C1 C 0.1460(3) 0.3507(3) -0.18888(16)
H2 H 0.2788 0.3683 -0.2064
C2 C -0.1777(3) 0.3233(3) -0.19012(15)
H3 H -0.3118 0.3183 -0.2090
C3 C -0.0229(3) 0.3812(3) -0.33583(14)
C4 C 0.1210(4) 0.4680(3) -0.37249(16)
H4 H 0.2225 0.5044 -0.3365
C5 C -0.0239(3) 0.4468(2) -0.50810(17)
H5 H -0.0263 0.4697 -0.5677
C6 C -0.1705(4) 0.3570(3) -0.47591(17)
H6 H -0.2680 0.3193 -0.5135
C7 C -0.1723(4) 0.3232(3) -0.38743(17)
H7 H -0.2706 0.2635 -0.3638
Cu1C Cu -0.25911(3) 0.22619(3) -0.002190(16)
Cu1A Cu 0.25911(3) 0.72619(3) -0.497810(16)
O1C O 0.48397(19) 0.22948(18) -0.06137(11)
H1C H 0.4742 0.1754 -0.1060
N2C N 0.3828(2) 0.1974(2) 0.10978(12)
N4A N 0.3788(3) 0.4975(2) 0.04192(13)
Cl1 Cl 0.95030(10) 0.40318(7) -0.74405(4)
loop_
_geom_bond_atom_site_label_1
_geom_bond_atom_site_label_2
_geom_bond_site_symmetry_1
_geom_bond_site_symmetry_2
Cu1 O1 1_555 1_555
O1 H1 1_555 1_555
N1 Cu1 1_555 1_555
N2 N1 1_555 1_555
N3 C1 1_555 1_555
N4 C4 1_555 1_555
C1 N1 1_555 1_555
H2 C1 1_555 1_555
C2 N2 1_555 1_555
H3 C2 1_555 1_555
C3 N3 1_555 1_555
C4 C3 1_555 1_555
H4 C4 1_555 1_555
C5 N4 1_555 1_555
H5 C5 1_555 1_555
C6 C5 1_555 1_555
H6 C6 1_555 1_555
C7 C3 1_555 1_555
H7 C7 1_555 1_555
Cu1C O1 1_555 1_555
Cu1A N4 1_555 1_555
O1C Cu1 1_555 1_555
H1C O1C 1_555 1_555
N2C Cu1 1_555 1_555
N4A Cu1 1_555 1_555
N2 Cu1C 1_555 1_555
N3 C2 1_555 1_555
C6 C7 1_555 1_555

#END
