
#######################################################################
#
#                 Cambridge Crystallographic Data Centre
#                                CCDC 
#
#######################################################################
#
# If this CIF has been generated from an entry in the Cambridge 
# Structural Database, then it will include bibliographic, chemical, 
# crystal, experimental, refinement or atomic coordinate data resulting 
# from the CCDC's data processing and validation procedures.
#
#######################################################################

data_YUNLEZ
_symmetry_cell_setting           monoclinic
_symmetry_space_group_name_H-M   'C 2/c'
_symmetry_Int_Tables_number      15
_space_group_name_Hall           '-C 2yn'
loop_
_symmetry_equiv_pos_site_id
_symmetry_equiv_pos_as_xyz
1 x,y,z
2 -x,y,1/2-z
3 1/2+x,1/2+y,z
4 1/2-x,1/2+y,1/2-z
5 -x,-y,-z
6 x,-y,1/2+z
7 1/2-x,1/2-y,-z
8 1/2+x,1/2-y,1/2+z
_cell_length_a                   10.7028(4)
_cell_length_b                   11.8825(5)
_cell_length_c                   24.0332(8)
_cell_angle_alpha                90
_cell_angle_beta                 95.516(3)
_cell_angle_gamma                90
_cell_volume                     3042.29
loop_
_atom_site_label
_atom_site_type_symbol
_atom_site_fract_x
_atom_site_fract_y
_atom_site_fract_z
Hg1 Hg 0.0000 -0.01299(3) 0.2500
Br1 Br -0.22114(4) -0.07601(5) 0.22849(2)
N1 N -0.1268(3) 0.4732(3) 0.08784(15)
N2 N -0.1391(3) 0.5798(3) 0.01008(15)
C1 C -0.0442(4) 0.2997(4) 0.13712(18)
N3 N -0.2208(3) 0.2906(4) 0.01814(15)
N4 N 0.0322(3) 0.1339(3) 0.18499(14)
C2 C -0.1641(3) 0.4811(4) 0.03089(18)
C3 C -0.2252(4) 0.3903(4) -0.0030(2)
C4 C -0.0355(4) 0.7509(5) 0.0567(2)
H1 H -0.0408 0.7958 0.0249
C5 C 0.1504(4) 0.2207(5) 0.1184(2)
H2 H 0.2224 0.2210 0.0996
C6 C -0.1485(4) 0.3829(4) 0.12789(18)
H3 H -0.2246 0.3431 0.1145
H4 H -0.1621 0.4169 0.1635
C7 C -0.0150(4) 0.6140(5) 0.1545(2)
H5 H -0.0075 0.5696 0.1865
C8 C -0.0790(4) 0.6403(4) 0.0547(2)
C9 C 0.1331(4) 0.1382(5) 0.15716(19)
H6 H 0.1946 0.0833 0.1641
C10 C -0.0538(4) 0.2145(4) 0.17470(18)
H7 H -0.1246 0.2126 0.1943
C11 C -0.0692(4) 0.5730(4) 0.1033(2)
C12 C 0.0612(4) 0.3022(4) 0.10775(18)
H8 H 0.0709 0.3581 0.0814
C13 C 0.0152(4) 0.7908(5) 0.1072(2)
H9 H 0.0430 0.8650 0.1099
C14 C -0.2797(4) 0.4228(4) -0.06059(18)
H10 H -0.3173 0.3580 -0.0793
H11 H -0.2143 0.4512 -0.0814
H12 H -0.3423 0.4799 -0.0580
C15 C 0.0263(4) 0.7224(5) 0.1551(2)
H13 H 0.0632 0.7523 0.1885
Hg1F Hg -0.5000 0.51299(3) -0.2500
Br1A Br 0.22114(4) -0.07601(5) 0.27151(2)
N1F N -0.3732(3) 0.0268(3) -0.08784(15)
N2F N -0.3609(3) -0.0798(3) -0.01008(15)
C1F C -0.4558(4) 0.2003(4) -0.13712(18)
N3F N -0.2792(3) 0.2094(4) -0.01814(15)
N4F N -0.5322(3) 0.3661(3) -0.18499(14)
N4A N -0.0322(3) 0.1339(3) 0.31501(14)
C2F C -0.3359(3) 0.0189(4) -0.03089(18)
C3F C -0.2748(4) 0.1097(4) 0.0030(2)
C4F C -0.4645(4) -0.2509(5) -0.0567(2)
H1F H -0.4592 -0.2958 -0.0249
C5F C -0.6504(4) 0.2793(5) -0.1184(2)
H2F H -0.7224 0.2790 -0.0996
C6F C -0.3515(4) 0.1171(4) -0.12789(18)
H3F H -0.2754 0.1569 -0.1145
H4F H -0.3379 0.0831 -0.1635
C7F C -0.4850(4) -0.1140(5) -0.1545(2)
H5F H -0.4925 -0.0696 -0.1865
C8F C -0.4210(4) -0.1403(4) -0.0547(2)
C9F C -0.6331(4) 0.3618(5) -0.15716(19)
H6F H -0.6946 0.4167 -0.1641
C10F C -0.4462(4) 0.2855(4) -0.17470(18)
H7F H -0.3754 0.2874 -0.1943
C11F C -0.4308(4) -0.0730(4) -0.1033(2)
C12F C -0.5612(4) 0.1978(4) -0.10775(18)
H8F H -0.5709 0.1419 -0.0814
C13F C -0.5152(4) -0.2908(5) -0.1072(2)
H9F H -0.5430 -0.3650 -0.1099
C14F C -0.2203(4) 0.0772(4) 0.06059(18)
H10F H -0.1827 0.1420 0.0793
H11F H -0.2857 0.0488 0.0814
H12F H -0.1577 0.0201 0.0580
C15F C -0.5263(4) -0.2224(5) -0.1551(2)
H13F H -0.5632 -0.2523 -0.1885
loop_
_geom_bond_atom_site_label_1
_geom_bond_atom_site_label_2
_geom_bond_site_symmetry_1
_geom_bond_site_symmetry_2
Hg1 Br1 1_555 1_555
N1 C2 1_555 1_555
N2 C2 1_555 1_555
C1 C6 1_555 1_555
N3 C3 1_555 1_555
N4 Hg1 1_555 1_555
C2 C3 1_555 1_555
C3 C14 1_555 1_555
C4 H1 1_555 1_555
C5 H2 1_555 1_555
C6 N1 1_555 1_555
H3 C6 1_555 1_555
H4 C6 1_555 1_555
C7 H5 1_555 1_555
C8 N2 1_555 1_555
C9 N4 1_555 1_555
H6 C9 1_555 1_555
C10 C1 1_555 1_555
H7 C10 1_555 1_555
C11 N1 1_555 1_555
C12 C1 1_555 1_555
H8 C12 1_555 1_555
C13 C4 1_555 1_555
H9 C13 1_555 1_555
C14 H10 1_555 1_555
H11 C14 1_555 1_555
H12 C14 1_555 1_555
C15 C7 1_555 1_555
H13 C15 1_555 1_555
Hg1F N4F 1_555 1_555
Br1A Hg1 1_555 1_555
N1F C2F 1_555 1_555
N2F C2F 1_555 1_555
C1F C6F 1_555 1_555
N3F N3 1_555 1_555
N4F C9F 1_555 1_555
N4A Hg1 1_555 1_555
C2F C3F 1_555 1_555
C3F N3F 1_555 1_555
C4F H1F 1_555 1_555
C5F H2F 1_555 1_555
C6F N1F 1_555 1_555
H3F C6F 1_555 1_555
H4F C6F 1_555 1_555
C7F H5F 1_555 1_555
C8F N2F 1_555 1_555
C9F C5F 1_555 1_555
H6F C9F 1_555 1_555
C10F C1F 1_555 1_555
H7F C10F 1_555 1_555
C11F N1F 1_555 1_555
C12F C1F 1_555 1_555
H8F C12F 1_555 1_555
C13F C4F 1_555 1_555
H9F C13F 1_555 1_555
C14F C3F 1_555 1_555
H10F C14F 1_555 1_555
H11F C14F 1_555 1_555
H12F C14F 1_555 1_555
C15F C7F 1_555 1_555
H13F C15F 1_555 1_555
N4 C10 1_555 1_555
C4 C8 1_555 1_555
C5 C9 1_555 1_555
C5 C12 1_555 1_555
C7 C11 1_555 1_555
C8 C11 1_555 1_555
C13 C15 1_555 1_555
N4F C10F 1_555 1_555
C4F C8F 1_555 1_555
C5F C12F 1_555 1_555
C7F C11F 1_555 1_555
C8F C11F 1_555 1_555
C13F C15F 1_555 1_555

#END
