
#######################################################################
#
#                 Cambridge Crystallographic Data Centre
#                                CCDC 
#
#######################################################################
#
# If this CIF has been generated from an entry in the Cambridge 
# Structural Database, then it will include bibliographic, chemical, 
# crystal, experimental, refinement or atomic coordinate data resulting 
# from the CCDC's data processing and validation procedures.
#
#######################################################################

data_YUNPED
_symmetry_cell_setting           monoclinic
_symmetry_space_group_name_H-M   'P 21/n'
_symmetry_Int_Tables_number      14
_space_group_name_Hall           '-P 2yn'
loop_
_symmetry_equiv_pos_site_id
_symmetry_equiv_pos_as_xyz
1 x,y,z
2 1/2-x,1/2+y,1/2-z
3 -x,-y,-z
4 1/2+x,1/2-y,1/2+z
_cell_length_a                   12.0398(14)
_cell_length_b                   23.199(3)
_cell_length_c                   21.517(3)
_cell_angle_alpha                90
_cell_angle_beta                 93.4830(10)
_cell_angle_gamma                90
_cell_volume                     5998.84
loop_
_atom_site_label
_atom_site_type_symbol
_atom_site_fract_x
_atom_site_fract_y
_atom_site_fract_z
Cd1 Cd 1.757150(11) 0.114400(6) 0.062070(6)
Cd2 Cd 1.0000 0.0000 0.0000
Cd3 Cd 1.698920(11) 0.303680(6) 0.081420(6)
Cd4 Cd 0.622770(11) -0.039490(6) 0.468870(6)
O1 O 1.65479(11) 0.21043(6) 0.05924(7)
O3 O 1.56010(12) 0.13159(7) 0.07252(9)
O6 O 0.95554(11) 0.08973(6) 0.03941(6)
O7 O 0.90906(11) 0.18028(6) 0.05014(6)
O8 O 1.62055(12) 0.29041(7) 0.17937(7)
O9 O 1.79992(12) 0.27685(7) 0.17162(7)
O10 O 1.52702(12) 0.04811(6) 0.45649(7)
O11 O 1.41764(12) 0.12188(6) 0.46870(6)
O16 O 1.83413(12) 0.28415(6) 0.01654(7)
H3 H 1.8742(18) 0.2557(8) 0.0265(11)
H4 H 1.8665(19) 0.3088(9) -0.0024(11)
O17 O 0.74341(12) -0.00649(6) 0.39264(6)
O18 O 0.75148(11) -0.09975(6) 0.40901(6)
O19 O 0.82722(12) -0.03220(6) 0.02351(7)
O20 O 0.70722(13) 0.02065(6) 0.07450(7)
N1 N 0.73402(14) -0.00437(7) -0.45024(7)
N2 N 0.87237(14) 0.07193(7) -0.28655(7)
H5 H 0.879(2) 0.1081(7) -0.2902(11)
N3 N 0.94058(14) 0.02470(7) -0.09977(7)
N4 N 2.08207(14) 0.15817(7) 0.50228(8)
N5 N 1.86988(15) 0.08932(8) 0.35878(7)
H6 H 1.8290(18) 0.0606(9) 0.3703(11)
N6 N 1.80024(14) 0.11724(7) 0.16774(7)
N7 N 1.49317(13) 0.07413(7) -0.38907(7)
N8 N 1.64191(17) 0.15544(8) -0.23140(8)
H7 H 1.651(2) 0.1920(7) -0.2393(12)
N9 N 1.72249(14) 0.12114(7) -0.04298(7)
C1 C 0.77449(17) -0.03758(9) -0.40292(9)
H8 H 0.7688 -0.0774 -0.4074
C2 C 0.82403(18) -0.01611(9) -0.34800(9)
H9 H 0.8520 -0.0411 -0.3171
C3 C 0.83146(16) 0.04357(8) -0.33961(8)
C4 C 0.79485(16) 0.07820(8) -0.39038(9)
H10 H 0.8030 0.1180 -0.3882
C5 C 0.74697(16) 0.05306(9) -0.44320(9)
H11 H 0.7221 0.0769 -0.4759
C6 C 0.88835(19) -0.01222(9) -0.13962(9)
H12 H 0.8679 -0.0480 -0.1244
C7 C 0.86297(19) -0.00044(9) -0.20182(9)
H13 H 0.8267 -0.0277 -0.2274
C8 C 0.89257(16) 0.05293(8) -0.22569(9)
C9 C 0.94346(17) 0.09242(8) -0.18362(9)
H14 H 0.9623 0.1291 -0.1970
C10 C 0.96538(17) 0.07664(8) -0.12253(9)
H15 H 0.9993 0.1035 -0.0955
C11 C 2.02473(17) 0.10884(9) 0.50803(9)
H16 H 2.0316 0.0895 0.5459
C12 C 1.95661(17) 0.08544(9) 0.46113(9)
H17 H 1.9194 0.0510 0.4676
C13 C 1.94307(16) 0.11348(8) 0.40331(9)
C14 C 2.00192(18) 0.16487(9) 0.39702(9)
H18 H 1.9959 0.1854 0.3598
C15 C 2.06920(18) 0.18478(9) 0.44678(9)
H19 H 2.1082 0.2189 0.4415
C16 C 1.72661(16) 0.09331(9) 0.20448(9)
H20 H 1.6582 0.0815 0.1865
C17 C 1.74770(16) 0.08543(9) 0.26751(9)
H21 H 1.6938 0.0692 0.2912
C18 C 1.85048(16) 0.10198(8) 0.29583(9)
C19 C 1.92739(17) 0.12689(9) 0.25791(9)
H22 H 1.9969 0.1386 0.2745
C20 C 1.89820(17) 0.13389(9) 0.19503(9)
H23 H 1.9495 0.1511 0.1703
C21 C 1.74355(18) 0.17176(9) -0.07036(9)
H24 H 1.7769 0.2008 -0.0460
C22 C 1.71858(19) 0.18287(9) -0.13210(9)
H25 H 1.7355 0.2185 -0.1489
C23 C 1.66727(17) 0.14012(9) -0.16990(9)
C24 C 1.64394(17) 0.08779(9) -0.14177(9)
H26 H 1.6091 0.0583 -0.1647
C25 C 1.67348(17) 0.08042(9) -0.07909(9)
H27 H 1.6584 0.0451 -0.0610
C26 C 1.50538(18) 0.13175(9) -0.38402(9)
H28 H 1.4793 0.1546 -0.4173
C27 C 1.55407(19) 0.15848(9) -0.33257(9)
H29 H 1.5607 0.1984 -0.3315
C28 C 1.59374(16) 0.12530(9) -0.28167(9)
C29 C 1.58341(16) 0.06557(9) -0.28672(9)
H30 H 1.6103 0.0417 -0.2545
C30 C 1.53241(16) 0.04252(8) -0.34054(8)
H31 H 1.5250 0.0027 -0.3431
C31 C 1.56286(16) 0.18482(9) 0.06476(9)
C32 C 1.45746(17) 0.22037(9) 0.05939(12)
H32 H 1.4667 0.2524 0.0882
H33 H 1.4504 0.2365 0.0177
C33 C 1.34938(16) 0.19064(9) 0.07148(10)
H34 H 1.3525 0.1761 0.1138
H35 H 1.3382 0.1582 0.0434
C34 C 1.25251(16) 0.23276(9) 0.06180(12)
H36 H 1.2503 0.2465 0.0192
H37 H 1.2668 0.2657 0.0888
C35 C 1.13841(17) 0.20823(10) 0.07437(11)
H38 H 1.1416 0.1922 0.1161
H39 H 1.0847 0.2395 0.0730
C36 C 1.09779(16) 0.16190(9) 0.02853(10)
H40 H 1.0998 0.1767 -0.0135
H41 H 1.1475 0.1290 0.0323
C37 C 0.98090(15) 0.14255(8) 0.03964(8)
C38 C 1.71592(17) 0.27616(8) 0.20320(9)
C39 C 1.73110(18) 0.26017(9) 0.27155(9)
H42 H 1.7544 0.2945 0.2945
H43 H 1.7917 0.2327 0.2762
C40 C 1.63144(19) 0.23474(9) 0.30242(10)
H44 H 1.6134 0.1974 0.2843
H45 H 1.5674 0.2597 0.2948
C41 C 1.6567(2) 0.22821(10) 0.37254(10)
H46 H 1.6690 0.2663 0.3903
H47 H 1.7256 0.2068 0.3792
C42 C 1.5666(2) 0.19788(9) 0.40827(10)
H48 H 1.5804 0.2052 0.4524
H49 H 1.4946 0.2142 0.3955
C43 C 1.56293(19) 0.13317(9) 0.39742(10)
H50 H 1.5296 0.1260 0.3560
H51 H 1.6387 0.1188 0.3986
C44 C 1.49916(16) 0.09914(8) 0.44367(8)
C45 C 0.77173(15) -0.05641(8) 0.37595(8)
C46 C 0.82119(16) -0.06396(9) 0.31330(9)
H52 H 0.8689 -0.0977 0.3140
H53 H 0.8656 -0.0305 0.3040
C47 C 0.72505(17) -0.07117(9) 0.26342(9)
H54 H 0.6855 -0.1065 0.2716
H55 H 0.6734 -0.0394 0.2670
C48 C 0.76223(17) -0.07307(9) 0.19692(9)
H56 H 0.8028 -0.0381 0.1885
H57 H 0.8122 -0.1054 0.1926
C49 C 0.66340(17) -0.07890(9) 0.14952(9)
H58 H 0.6138 -0.0465 0.1544
H59 H 0.6228 -0.1137 0.1587
C50 C 0.69486(18) -0.08130(9) 0.08160(9)
H60 H 0.7457 -0.1132 0.0770
H61 H 0.6282 -0.0892 0.0553
C51 C 0.74875(16) -0.02660(8) 0.05831(8)
Cd1B Cd 0.242850(11) -0.114400(6) -0.062070(6)
Cd1_2 Cd 0.757150(11) 0.114400(6) 0.062070(6)
Cd1B_2 Cd 1.242850(11) -0.114400(6) -0.062070(6)
Cd1C Cd 1.257150(11) 0.385600(6) -0.437930(6)
Cd3B Cd 0.301080(11) -0.303680(6) -0.081420(6)
Cd3A Cd 0.801080(11) -0.196320(6) 0.418580(6)
Cd3C Cd 2.198920(11) 0.196320(6) 0.581420(6)
Cd3C_2 Cd 1.198920(11) 0.196320(6) -0.418580(6)
Cd3_2 Cd 0.698920(11) 0.303680(6) 0.081420(6)
Cd4B Cd 1.377230(11) 0.039490(6) -0.468870(6)
Cd4_2 Cd 1.622770(11) -0.039490(6) 0.468870(6)
Cd4B_2 Cd 1.377230(11) 0.039490(6) 0.531130(6)
Cd4_3 Cd 0.622770(11) -0.039490(6) -0.531130(6)
Cd4B_3 Cd 0.377230(11) 0.039490(6) 0.531130(6)
O1B O 0.34521(11) -0.21043(6) -0.05924(7)
O3B O 0.43990(12) -0.13159(7) -0.07252(9)
O6B O 1.04446(11) -0.08973(6) -0.03941(6)
O6_2 O 1.95554(11) 0.08973(6) 0.03941(6)
O6B_2 O 0.04446(11) -0.08973(6) -0.03941(6)
O7B O 1.09094(11) -0.18028(6) -0.05014(6)
O7_2 O 1.90906(11) 0.18028(6) 0.05014(6)
O7B_2 O 0.09094(11) -0.18028(6) -0.05014(6)
O8_2 O 0.62055(12) 0.29041(7) 0.17937(7)
O8B O 0.37945(12) -0.29041(7) -0.17937(7)
O9_2 O 0.79992(12) 0.27685(7) 0.17162(7)
O9B O 0.20008(12) -0.27685(7) -0.17162(7)
O10_2 O 0.52702(12) 0.04811(6) 0.45649(7)
O10B O 0.47298(12) -0.04811(6) 0.54351(7)
O10B_2 O 1.47298(12) -0.04811(6) -0.45649(7)
O10_3 O 1.52702(12) 0.04811(6) -0.54351(7)
O11_2 O 0.41764(12) 0.12188(6) 0.46870(6)
O11B O 0.58236(12) -0.12188(6) 0.53130(6)
O11_3 O 1.41764(12) 0.12188(6) -0.53130(6)
O16B O 0.16587(12) -0.28415(6) -0.01654(7)
H3B H 0.1258(18) -0.2557(8) -0.0265(11)
H4B H 0.1335(19) -0.3088(9) 0.0024(11)
O17B O 1.25659(12) 0.00649(6) -0.39264(6)
O18B O 1.24852(11) 0.09975(6) -0.40901(6)
O18A O 1.74852(11) 0.40025(6) 0.09099(6)
O18C O 0.25148(11) -0.40025(6) -0.09099(6)
O19B O 1.17278(12) 0.03220(6) -0.02351(7)
O20B O 1.29278(13) -0.02065(6) -0.07450(7)
O20_2 O 1.70722(13) 0.02065(6) 0.07450(7)
O20B_2 O 0.29278(13) -0.02065(6) -0.07450(7)
N1B N 1.26598(14) 0.00437(7) 0.45024(7)
N1_2 N 0.73402(14) -0.00437(7) 0.54976(7)
N1B_2 N 1.26598(14) 0.00437(7) -0.54976(7)
N2B N 1.12763(14) -0.07193(7) 0.28655(7)
H5B H 1.121(2) -0.1081(7) 0.2902(11)
N3B N 1.05942(14) -0.02470(7) 0.09977(7)
N4C N 1.58207(14) 0.34183(7) 0.00228(8)
N4A N 0.41793(14) -0.34183(7) -0.00228(8)
N5C N 1.36988(15) 0.41068(8) -0.14122(7)
H6C H 1.3290(18) 0.4394(9) -0.1297(11)
N6C N 1.30024(14) 0.38276(7) -0.33226(7)
N6B N 0.19976(14) -0.11724(7) -0.16774(7)
N7B N 0.50683(13) -0.07413(7) 0.38907(7)
N8B N 0.35809(17) -0.15544(8) 0.23140(8)
H7B H 0.349(2) -0.1920(7) 0.2393(12)
N9B N 0.27751(14) -0.12114(7) 0.04298(7)
C1B C 1.22551(17) 0.03758(9) 0.40292(9)
H8B H 1.2312 0.0774 0.4074
C2B C 1.17597(18) 0.01611(9) 0.34800(9)
H9B H 1.1480 0.0411 0.3171
C3B C 1.16854(16) -0.04357(8) 0.33961(8)
C4B C 1.20515(16) -0.07820(8) 0.39038(9)
H10B H 1.1970 -0.1180 0.3882
C5B C 1.25303(16) -0.05306(9) 0.44320(9)
H11B H 1.2779 -0.0769 0.4759
C6B C 1.11165(19) 0.01222(9) 0.13962(9)
H12B H 1.1321 0.0480 0.1244
C7B C 1.13703(19) 0.00044(9) 0.20182(9)
H13B H 1.1733 0.0277 0.2274
C8B C 1.10743(16) -0.05293(8) 0.22569(9)
C9B C 1.05654(17) -0.09242(8) 0.18362(9)
H14B H 1.0377 -0.1291 0.1970
C10B C 1.03462(17) -0.07664(8) 0.12253(9)
H15B H 1.0007 -0.1035 0.0955
C11C C 1.52473(17) 0.39116(9) 0.00803(9)
H16C H 1.5316 0.4105 0.0459
C12C C 1.45661(17) 0.41456(9) -0.03887(9)
H17C H 1.4194 0.4490 -0.0324
C13C C 1.44307(16) 0.38652(8) -0.09669(9)
C14C C 1.50192(18) 0.33513(9) -0.10298(9)
H18C H 1.4959 0.3146 -0.1402
C15C C 1.56920(18) 0.31522(9) -0.05322(9)
H19C H 1.6082 0.2811 -0.0585
C16C C 1.22661(16) 0.40669(9) -0.29552(9)
H20C H 1.1582 0.4185 -0.3135
C17C C 1.24770(16) 0.41457(9) -0.23249(9)
H21C H 1.1938 0.4308 -0.2088
C18C C 1.35048(16) 0.39802(8) -0.20417(9)
C19C C 1.42739(17) 0.37311(9) -0.24209(9)
H22C H 1.4969 0.3614 -0.2255
C20C C 1.39820(17) 0.36611(9) -0.30497(9)
H23C H 1.4495 0.3489 -0.3297
C21B C 0.25645(18) -0.17176(9) 0.07036(9)
H24B H 0.2231 -0.2008 0.0460
C22B C 0.28142(19) -0.18287(9) 0.13210(9)
H25B H 0.2645 -0.2185 0.1489
C23B C 0.33273(17) -0.14012(9) 0.16990(9)
C24B C 0.35606(17) -0.08779(9) 0.14177(9)
H26B H 0.3909 -0.0583 0.1647
C25B C 0.32652(17) -0.08042(9) 0.07909(9)
H27B H 0.3416 -0.0451 0.0610
C26B C 0.49462(18) -0.13175(9) 0.38402(9)
H28B H 0.5207 -0.1546 0.4173
C27B C 0.44593(19) -0.15848(9) 0.33257(9)
H29B H 0.4393 -0.1984 0.3315
C28B C 0.40626(16) -0.12530(9) 0.28167(9)
C29B C 0.41659(16) -0.06557(9) 0.28672(9)
H30B H 0.3897 -0.0417 0.2545
C30B C 0.46759(16) -0.04252(8) 0.34054(8)
H31B H 0.4750 -0.0027 0.3431
C31B C 0.43714(16) -0.18482(9) -0.06476(9)
C32B C 0.54254(17) -0.22037(9) -0.05939(12)
H32B H 0.5333 -0.2524 -0.0882
H33B H 0.5496 -0.2365 -0.0177
C33B C 0.65062(16) -0.19064(9) -0.07148(10)
H34B H 0.6475 -0.1761 -0.1138
H35B H 0.6618 -0.1582 -0.0434
C34B C 0.74749(16) -0.23276(9) -0.06180(12)
H36B H 0.7497 -0.2465 -0.0192
H37B H 0.7332 -0.2657 -0.0888
C35B C 0.86159(17) -0.20823(10) -0.07437(11)
H38B H 0.8584 -0.1922 -0.1161
H39B H 0.9153 -0.2395 -0.0730
C36B C 0.90221(16) -0.16190(9) -0.02853(10)
H40B H 0.9002 -0.1767 0.0135
H41B H 0.8525 -0.1290 -0.0323
C37B C 1.01910(15) -0.14255(8) -0.03964(8)
C38_2 C 0.71592(17) 0.27616(8) 0.20320(9)
C39_2 C 0.73110(18) 0.26017(9) 0.27155(9)
H42_2 H 0.7544 0.2945 0.2945
H43_2 H 0.7917 0.2327 0.2762
C40_2 C 0.63144(19) 0.23474(9) 0.30242(10)
H44_2 H 0.6134 0.1974 0.2843
H45_2 H 0.5674 0.2597 0.2948
C41_2 C 0.6567(2) 0.22821(10) 0.37254(10)
H46_2 H 0.6690 0.2663 0.3903
H47_2 H 0.7256 0.2068 0.3792
C42_2 C 0.5666(2) 0.19788(9) 0.40827(10)
H48_2 H 0.5804 0.2052 0.4524
H49_2 H 0.4946 0.2142 0.3955
C43_2 C 0.56293(19) 0.13317(9) 0.39742(10)
H50_2 H 0.5296 0.1260 0.3560
H51_2 H 0.6387 0.1188 0.3986
C44_2 C 0.49916(16) 0.09914(8) 0.44367(8)
C45B C 1.22827(15) 0.05641(8) -0.37595(8)
C46B C 1.17881(16) 0.06396(9) -0.31330(9)
H52B H 1.1311 0.0977 -0.3140
H53B H 1.1344 0.0305 -0.3040
C47B C 1.27495(17) 0.07117(9) -0.26342(9)
H54B H 1.3145 0.1065 -0.2716
H55B H 1.3266 0.0394 -0.2670
C48B C 1.23777(17) 0.07307(9) -0.19692(9)
H56B H 1.1972 0.0381 -0.1885
H57B H 1.1878 0.1054 -0.1926
C49B C 1.33660(17) 0.07890(9) -0.14952(9)
H58B H 1.3862 0.0465 -0.1544
H59B H 1.3772 0.1137 -0.1587
C50B C 1.30514(18) 0.08130(9) -0.08160(9)
H60B H 1.2543 0.1132 -0.0770
H61B H 1.3718 0.0892 -0.0553
C51B C 1.25125(16) 0.02660(8) -0.05831(8)
Cl1 Cl 1.25205(5) 0.17590(2) 0.26151(3)
O12 O 1.2186(3) 0.12951(9) 0.22272(14)
O13 O 1.2011(4) 0.22595(12) 0.23675(13)
O14 O 1.2231(3) 0.16660(13) 0.32264(13)
O15 O 1.3655(3) 0.1826(2) 0.25994(17)
O2 O 0.40404(14) 0.30874(7) 0.19842(9)
H1 H 0.4707(14) 0.3013(12) 0.1960(13)
H2 H 0.371(2) 0.2817(10) 0.2138(13)
O4 O 0.4730(4) 0.03116(16) 0.0991(3)
O5 O 1.4565(4) 0.0579(2) 0.2312(2)
O21? O 1.4448(11) 0.0527(5) 0.1901(7)
loop_
_geom_bond_atom_site_label_1
_geom_bond_atom_site_label_2
_geom_bond_site_symmetry_1
_geom_bond_site_symmetry_2
Cd1 O1 1_555 1_555
Cd2 O6 1_555 1_555
Cd3 O1 1_555 1_555
Cd4 O17 1_555 1_555
Cl1 O12 1_555 1_555
O1 C31 1_555 1_555
O2 H1 1_555 1_555
H2 O2 1_555 1_555
O3 Cd1 1_555 1_555
O6 C37 1_555 1_555
O7 C37 1_555 1_555
O8 Cd3 1_555 1_555
O9 Cd3 1_555 1_555
O10 C44 1_555 1_555
O11 C44 1_555 1_555
O13 Cl1 1_555 1_555
O14 Cl1 1_555 1_555
O15 Cl1 1_555 1_555
O16 Cd3 1_555 1_555
H3 O16 1_555 1_555
H4 O16 1_555 1_555
O17 C45 1_555 1_555
O18 Cd4 1_555 1_555
O19 Cd2 1_555 1_555
O20 C51 1_555 1_555
N1 C1 1_555 1_555
N2 H5 1_555 1_555
N3 Cd2 1_555 1_555
N4 C11 1_555 1_555
N5 H6 1_555 1_555
N6 Cd1 1_555 1_555
N7 C26 1_555 1_555
N8 H7 1_555 1_555
N9 Cd1 1_555 1_555
C1 H8 1_555 1_555
C2 C1 1_555 1_555
H9 C2 1_555 1_555
C3 N2 1_555 1_555
C4 C3 1_555 1_555
H10 C4 1_555 1_555
C5 N1 1_555 1_555
H11 C5 1_555 1_555
C6 N3 1_555 1_555
H12 C6 1_555 1_555
C7 C6 1_555 1_555
H13 C7 1_555 1_555
C8 N2 1_555 1_555
C9 C8 1_555 1_555
H14 C9 1_555 1_555
C10 N3 1_555 1_555
H15 C10 1_555 1_555
C11 H16 1_555 1_555
C12 C11 1_555 1_555
H17 C12 1_555 1_555
C13 N5 1_555 1_555
C14 C13 1_555 1_555
H18 C14 1_555 1_555
C15 N4 1_555 1_555
H19 C15 1_555 1_555
C16 N6 1_555 1_555
H20 C16 1_555 1_555
C17 C16 1_555 1_555
H21 C17 1_555 1_555
C18 N5 1_555 1_555
C19 C18 1_555 1_555
H22 C19 1_555 1_555
C20 N6 1_555 1_555
H23 C20 1_555 1_555
C21 N9 1_555 1_555
H24 C21 1_555 1_555
C22 C21 1_555 1_555
H25 C22 1_555 1_555
C23 N8 1_555 1_555
C24 C23 1_555 1_555
H26 C24 1_555 1_555
C25 N9 1_555 1_555
H27 C25 1_555 1_555
C26 H28 1_555 1_555
C27 C26 1_555 1_555
H29 C27 1_555 1_555
C28 N8 1_555 1_555
C29 C28 1_555 1_555
H30 C29 1_555 1_555
C30 N7 1_555 1_555
H31 C30 1_555 1_555
C31 O3 1_555 1_555
C32 C31 1_555 1_555
H32 C32 1_555 1_555
H33 C32 1_555 1_555
C33 C32 1_555 1_555
H34 C33 1_555 1_555
H35 C33 1_555 1_555
C34 C33 1_555 1_555
H36 C34 1_555 1_555
H37 C34 1_555 1_555
C35 C34 1_555 1_555
H38 C35 1_555 1_555
H39 C35 1_555 1_555
C36 C35 1_555 1_555
H40 C36 1_555 1_555
H41 C36 1_555 1_555
C37 C36 1_555 1_555
C38 O8 1_555 1_555
C39 C38 1_555 1_555
H42 C39 1_555 1_555
H43 C39 1_555 1_555
C40 C39 1_555 1_555
H44 C40 1_555 1_555
H45 C40 1_555 1_555
C41 C40 1_555 1_555
H46 C41 1_555 1_555
H47 C41 1_555 1_555
C42 C41 1_555 1_555
H48 C42 1_555 1_555
H49 C42 1_555 1_555
C43 C42 1_555 1_555
H50 C43 1_555 1_555
H51 C43 1_555 1_555
C44 C43 1_555 1_555
C45 O18 1_555 1_555
C46 C45 1_555 1_555
H52 C46 1_555 1_555
H53 C46 1_555 1_555
C47 C46 1_555 1_555
H54 C47 1_555 1_555
H55 C47 1_555 1_555
C48 C47 1_555 1_555
H56 C48 1_555 1_555
H57 C48 1_555 1_555
C49 C48 1_555 1_555
H58 C49 1_555 1_555
H59 C49 1_555 1_555
C50 C49 1_555 1_555
H60 C50 1_555 1_555
H61 C50 1_555 1_555
C51 O19 1_555 1_555
Cd1B O1B 1_555 1_555
Cd1_2 O6 1_555 1_555
Cd1B_2 O6B 1_555 1_555
Cd1C N6C 1_555 1_555
Cd3B O1B 1_555 1_555
Cd3A O18 1_555 1_555
Cd3C N4 1_555 1_555
Cd3C_2 O18B 1_555 1_555
Cd3_2 O8_2 1_555 1_555
Cd4B N7 1_555 1_555
Cd4_2 O10 1_555 1_555
Cd4B_2 O10 1_555 1_555
Cd4_3 N1 1_555 1_555
Cd4B_3 O10_2 1_555 1_555
O1B C31B 1_555 1_555
O3B Cd1B 1_555 1_555
O6B Cd2 1_555 1_555
O6_2 Cd1 1_555 1_555
O6B_2 Cd1B 1_555 1_555
O7B Cd1B_2 1_555 1_555
O7_2 Cd1 1_555 1_555
O7B_2 Cd1B 1_555 1_555
O8_2 C38_2 1_555 1_555
O8B Cd3B 1_555 1_555
O9_2 Cd3_2 1_555 1_555
O9B Cd3B 1_555 1_555
O10_2 Cd4 1_555 1_555
O10B Cd4 1_555 1_555
O10B_2 Cd4B 1_555 1_555
O10_3 Cd4B 1_555 1_555
O11_2 Cd4B_3 1_555 1_555
O11B Cd4 1_555 1_555
O11_3 Cd4B 1_555 1_555
O16B Cd3B 1_555 1_555
H3B O16B 1_555 1_555
H4B O16B 1_555 1_555
O17B Cd4B 1_555 1_555
O18B Cd4B 1_555 1_555
O18A Cd3 1_555 1_555
O18C Cd3B 1_555 1_555
O19B Cd2 1_555 1_555
O20B Cd1B_2 1_555 1_555
O20_2 Cd1 1_555 1_555
O20B_2 Cd1B 1_555 1_555
N1B Cd4B_2 1_555 1_555
N1_2 Cd4 1_555 1_555
N1B_2 Cd4B 1_555 1_555
N2B H5B 1_555 1_555
N3B Cd2 1_555 1_555
N4C Cd3 1_555 1_555
N4A Cd3B 1_555 1_555
N5C H6C 1_555 1_555
N6C C16C 1_555 1_555
N6B Cd1B 1_555 1_555
N7B Cd4 1_555 1_555
N8B H7B 1_555 1_555
N9B Cd1B 1_555 1_555
C1B N1B 1_555 1_555
H8B C1B 1_555 1_555
C2B C1B 1_555 1_555
H9B C2B 1_555 1_555
C3B N2B 1_555 1_555
C4B C3B 1_555 1_555
H10B C4B 1_555 1_555
C5B N1B 1_555 1_555
H11B C5B 1_555 1_555
C6B N3B 1_555 1_555
H12B C6B 1_555 1_555
C7B C6B 1_555 1_555
H13B C7B 1_555 1_555
C8B N2B 1_555 1_555
C9B C8B 1_555 1_555
H14B C9B 1_555 1_555
C10B N3B 1_555 1_555
H15B C10B 1_555 1_555
C11C N4C 1_555 1_555
H16C C11C 1_555 1_555
C12C C11C 1_555 1_555
H17C C12C 1_555 1_555
C13C N5C 1_555 1_555
C14C C13C 1_555 1_555
H18C C14C 1_555 1_555
C15C N4C 1_555 1_555
H19C C15C 1_555 1_555
C16C H20C 1_555 1_555
C17C C16C 1_555 1_555
H21C C17C 1_555 1_555
C18C N5C 1_555 1_555
C19C C18C 1_555 1_555
H22C C19C 1_555 1_555
C20C N6C 1_555 1_555
H23C C20C 1_555 1_555
C21B N9B 1_555 1_555
H24B C21B 1_555 1_555
C22B C21B 1_555 1_555
H25B C22B 1_555 1_555
C23B N8B 1_555 1_555
C24B C23B 1_555 1_555
H26B C24B 1_555 1_555
C25B N9B 1_555 1_555
H27B C25B 1_555 1_555
C26B N7B 1_555 1_555
H28B C26B 1_555 1_555
C27B C26B 1_555 1_555
H29B C27B 1_555 1_555
C28B N8B 1_555 1_555
C29B C28B 1_555 1_555
H30B C29B 1_555 1_555
C30B N7B 1_555 1_555
H31B C30B 1_555 1_555
C31B O3B 1_555 1_555
C32B C31B 1_555 1_555
H32B C32B 1_555 1_555
H33B C32B 1_555 1_555
C33B C32B 1_555 1_555
H34B C33B 1_555 1_555
H35B C33B 1_555 1_555
C34B C33B 1_555 1_555
H36B C34B 1_555 1_555
H37B C34B 1_555 1_555
C35B C34B 1_555 1_555
H38B C35B 1_555 1_555
H39B C35B 1_555 1_555
C36B C35B 1_555 1_555
H40B C36B 1_555 1_555
H41B C36B 1_555 1_555
C37B O6B 1_555 1_555
C38_2 O9_2 1_555 1_555
C39_2 C38_2 1_555 1_555
H42_2 C39_2 1_555 1_555
H43_2 C39_2 1_555 1_555
C40_2 C39_2 1_555 1_555
H44_2 C40_2 1_555 1_555
H45_2 C40_2 1_555 1_555
C41_2 C40_2 1_555 1_555
H46_2 C41_2 1_555 1_555
H47_2 C41_2 1_555 1_555
C42_2 C41_2 1_555 1_555
H48_2 C42_2 1_555 1_555
H49_2 C42_2 1_555 1_555
C43_2 C42_2 1_555 1_555
H50_2 C43_2 1_555 1_555
H51_2 C43_2 1_555 1_555
C44_2 O10_2 1_555 1_555
C45B O17B 1_555 1_555
C46B C45B 1_555 1_555
H52B C46B 1_555 1_555
H53B C46B 1_555 1_555
C47B C46B 1_555 1_555
H54B C47B 1_555 1_555
H55B C47B 1_555 1_555
C48B C47B 1_555 1_555
H56B C48B 1_555 1_555
H57B C48B 1_555 1_555
C49B C48B 1_555 1_555
H58B C49B 1_555 1_555
H59B C49B 1_555 1_555
C50B C49B 1_555 1_555
H60B C50B 1_555 1_555
H61B C50B 1_555 1_555
C51B O19B 1_555 1_555
O7 Cd1_2 1_555 1_555
O9 C38 1_555 1_555
O11 Cd4B_2 1_555 1_555
O20 Cd1_2 1_555 1_555
C2 C3 1_555 1_555
C4 C5 1_555 1_555
C7 C8 1_555 1_555
C9 C10 1_555 1_555
C12 C13 1_555 1_555
C14 C15 1_555 1_555
C17 C18 1_555 1_555
C19 C20 1_555 1_555
C22 C23 1_555 1_555
C24 C25 1_555 1_555
C27 C28 1_555 1_555
C29 C30 1_555 1_555
C50 C51 1_555 1_555
Cd4B_3 O10B 1_555 1_555
O7B C37B 1_555 1_555
O11_2 C44_2 1_555 1_555
O18B C45B 1_555 1_555
O20B C51B 1_555 1_555
C2B C3B 1_555 1_555
C4B C5B 1_555 1_555
C7B C8B 1_555 1_555
C9B C10B 1_555 1_555
C12C C13C 1_555 1_555
C14C C15C 1_555 1_555
C17C C18C 1_555 1_555
C19C C20C 1_555 1_555
C22B C23B 1_555 1_555
C24B C25B 1_555 1_555
C27B C28B 1_555 1_555
C29B C30B 1_555 1_555
C36B C37B 1_555 1_555
C43_2 C44_2 1_555 1_555
C50B C51B 1_555 1_555

#END
