
#######################################################################
#
#                 Cambridge Crystallographic Data Centre
#                                CCDC 
#
#######################################################################
#
# If this CIF has been generated from an entry in the Cambridge 
# Structural Database, then it will include bibliographic, chemical, 
# crystal, experimental, refinement or atomic coordinate data resulting 
# from the CCDC's data processing and validation procedures.
#
#######################################################################

data_YUPFAS
_symmetry_cell_setting           monoclinic
_symmetry_space_group_name_H-M   'P 21/c'
_symmetry_Int_Tables_number      14
_space_group_name_Hall           '-P 2ybc'
loop_
_symmetry_equiv_pos_site_id
_symmetry_equiv_pos_as_xyz
1 x,y,z
2 -x,1/2+y,1/2-z
3 -x,-y,-z
4 x,1/2-y,1/2+z
_cell_length_a                   8.9584(2)
_cell_length_b                   14.6692(4)
_cell_length_c                   19.0677(5)
_cell_angle_alpha                90
_cell_angle_beta                 117.742(2)
_cell_angle_gamma                90
_cell_volume                     2217.71
loop_
_atom_site_label
_atom_site_type_symbol
_atom_site_fract_x
_atom_site_fract_y
_atom_site_fract_z
Co1 Co 0.65536(5) 0.61693(3) 0.63405(2)
N1 N 0.8953(4) 0.9643(2) 0.40863(17)
N2 N 0.4188(3) 0.21023(17) 0.80564(15)
N3 N 0.5396(3) 0.67069(17) 0.52458(15)
N4 N 0.4543(3) 0.53199(16) 0.58510(15)
N5 N 0.7953(3) 0.52036(16) 0.71213(15)
N6 N 0.8849(3) 0.65301(17) 0.64569(15)
C1 C 0.7619(5) 0.9662(3) 0.4210(2)
H1 H 0.6864 1.0161 0.3996
C2 C 0.7239(4) 0.9022(2) 0.4622(2)
H2 H 0.6266 0.9093 0.4695
C3 C 0.8271(4) 0.8266(2) 0.49340(19)
C4 C 0.9690(4) 0.8236(2) 0.48194(19)
H3 H 1.0462 0.7743 0.5025
C5 C 0.9974(5) 0.8931(3) 0.4403(2)
H4 H 1.0962 0.8897 0.4338
C6 C 0.7808(4) 0.7547(2) 0.53350(18)
C7 C 0.6082(4) 0.7293(2) 0.49670(18)
H5 H 0.5364 0.7574 0.4475
C8 C 0.3710(4) 0.6422(2) 0.48156(18)
C9 C 0.2487(4) 0.6829(2) 0.41243(19)
H6 H 0.2777 0.7340 0.3907
C10 C 0.0875(4) 0.6498(2) 0.3757(2)
H7 H 0.0053 0.6786 0.3291
C11 C 0.0429(4) 0.5750(2) 0.40581(19)
H8 H -0.0690 0.5520 0.3796
C12 C 0.1615(4) 0.5338(2) 0.47393(19)
H9 H 0.1303 0.4820 0.4940
C13 C 0.3263(4) 0.5664(2) 0.51408(18)
C14 C 0.4352(4) 0.4617(2) 0.62250(18)
H10 H 0.3267 0.4343 0.6001
C15 C 0.5609(4) 0.4230(2) 0.69305(18)
C16 C 0.5138(4) 0.3487(2) 0.72982(18)
C17 C 0.3689(4) 0.2951(2) 0.68990(19)
H11 H 0.2979 0.3047 0.6349
C18 C 0.3279(4) 0.2294(2) 0.72879(19)
H12 H 0.2281 0.1950 0.6991
C19 C 0.5607(4) 0.2594(2) 0.84441(19)
H13 H 0.6303 0.2469 0.8990
C20 C 0.6113(4) 0.3267(2) 0.80979(18)
H14 H 0.7137 0.3585 0.8406
C21 C 0.7339(4) 0.4490(2) 0.72955(18)
H15 H 0.8113 0.4105 0.7704
C22 C 0.9713(4) 0.5354(2) 0.74421(18)
C23 C 1.0963(4) 0.4865(2) 0.8050(2)
H16 H 1.0658 0.4404 0.8310
C24 C 1.2628(4) 0.5032(3) 0.8287(2)
H17 H 1.3470 0.4671 0.8691
C25 C 1.3089(5) 0.5726(3) 0.7938(2)
H18 H 1.4248 0.5849 0.8109
C26 C 1.1876(4) 0.6238(3) 0.7346(2)
H19 H 1.2204 0.6717 0.7111
C27 C 1.0179(4) 0.6068(2) 0.70851(19)
C28 C 0.9078(4) 0.7132(2) 0.60097(18)
H20 H 1.0208 0.7302 0.6156
Co1A Co 0.34464(5) 0.11693(3) 0.86595(2)
N2A N 0.5812(3) 0.71023(17) 0.69436(15)
loop_
_geom_bond_atom_site_label_1
_geom_bond_atom_site_label_2
_geom_bond_site_symmetry_1
_geom_bond_site_symmetry_2
Co1 N3 1_555 1_555
N1 C1 1_555 1_555
N2 C18 1_555 1_555
N3 C7 1_555 1_555
N4 Co1 1_555 1_555
N5 Co1 1_555 1_555
N6 Co1 1_555 1_555
C1 H1 1_555 1_555
C2 C1 1_555 1_555
H2 C2 1_555 1_555
C3 C2 1_555 1_555
C4 C3 1_555 1_555
H3 C4 1_555 1_555
C5 N1 1_555 1_555
H4 C5 1_555 1_555
C6 C3 1_555 1_555
C7 C6 1_555 1_555
H5 C7 1_555 1_555
C8 N3 1_555 1_555
C9 C8 1_555 1_555
H6 C9 1_555 1_555
C10 C9 1_555 1_555
H7 C10 1_555 1_555
C11 C10 1_555 1_555
H8 C11 1_555 1_555
C12 C11 1_555 1_555
H9 C12 1_555 1_555
C13 N4 1_555 1_555
C14 N4 1_555 1_555
H10 C14 1_555 1_555
C15 C14 1_555 1_555
C16 C15 1_555 1_555
C17 C16 1_555 1_555
H11 C17 1_555 1_555
C18 C17 1_555 1_555
H12 C18 1_555 1_555
C19 N2 1_555 1_555
H13 C19 1_555 1_555
C20 C16 1_555 1_555
H14 C20 1_555 1_555
C21 N5 1_555 1_555
H15 C21 1_555 1_555
C22 N5 1_555 1_555
C23 C22 1_555 1_555
H16 C23 1_555 1_555
C24 C23 1_555 1_555
H17 C24 1_555 1_555
C25 C24 1_555 1_555
H18 C25 1_555 1_555
C26 C25 1_555 1_555
H19 C26 1_555 1_555
C27 N6 1_555 1_555
C28 N6 1_555 1_555
H20 C28 1_555 1_555
Co1A N2 1_555 1_555
N2A Co1 1_555 1_555
C4 C5 1_555 1_555
C6 C28 1_555 1_555
C8 C13 1_555 1_555
C12 C13 1_555 1_555
C15 C21 1_555 1_555
C19 C20 1_555 1_555
C22 C27 1_555 1_555
C26 C27 1_555 1_555

#END
