
#######################################################################
#
#                 Cambridge Crystallographic Data Centre
#                                CCDC 
#
#######################################################################
#
# If this CIF has been generated from an entry in the Cambridge 
# Structural Database, then it will include bibliographic, chemical, 
# crystal, experimental, refinement or atomic coordinate data resulting 
# from the CCDC's data processing and validation procedures.
#
#######################################################################

data_YUPFIZ
_symmetry_cell_setting           triclinic
_symmetry_space_group_name_H-M   'P -1'
_symmetry_Int_Tables_number      2
_space_group_name_Hall           '-P 1'
loop_
_symmetry_equiv_pos_site_id
_symmetry_equiv_pos_as_xyz
1 x,y,z
2 -x,-y,-z
_cell_length_a                   11.3449(12)
_cell_length_b                   11.3781(12)
_cell_length_c                   12.3825(13)
_cell_angle_alpha                100.374(1)
_cell_angle_beta                 109.481(1)
_cell_angle_gamma                101.403(1)
_cell_volume                     1423.83
loop_
_atom_site_label
_atom_site_type_symbol
_atom_site_fract_x
_atom_site_fract_y
_atom_site_fract_z
Ni1 Ni 0.0000 1.0000 0.0000
O1 O 0.06900(19) 1.00553(18) 0.17592(18)
O2 O 0.1437(2) 1.20773(18) 0.26811(18)
O3 O -0.0448(2) 0.80557(18) -0.04142(19)
H1 H -0.0882 0.7857 -0.1250
N1 N 0.1858(2) 1.0037(2) -0.0042(2)
C1 C 0.2022(3) 0.9184(3) -0.0828(3)
H4 H 0.1286 0.8591 -0.1401
C2 C 0.3218(3) 0.9131(3) -0.0838(3)
H5 H 0.3274 0.8503 -0.1398
C3 C 0.4344(2) 1.0011(2) -0.0016(2)
C4 C 0.4157(3) 1.0920(3) 0.0772(3)
H6 H 0.4870 1.1550 0.1330
C5 C 0.2927(3) 1.0893(3) 0.0732(3)
H7 H 0.2838 1.1511 0.1280
C6 C 0.1459(3) 1.0636(3) 0.3856(3)
C7 C 0.1346(3) 0.9406(3) 0.3899(3)
H8 H 0.1116 0.8789 0.3203
C8 C 0.1569(4) 0.9088(3) 0.4959(4)
C9 C 0.1899(4) 1.0028(4) 0.5985(4)
H9 H 0.2045 0.9823 0.6703
C10 C 0.2018(4) 1.1248(3) 0.5973(3)
C11 C 0.1797(3) 1.1552(3) 0.4898(3)
H10 H 0.1876 1.2376 0.4877
C12 C 0.1182(3) 1.0954(3) 0.2689(3)
C13 C 0.1441(6) 0.7741(4) 0.4995(5)
H11 H 0.0565 0.7347 0.4887
H12 H 0.2030 0.7714 0.5750
H13 H 0.1649 0.7312 0.4372
C14 C 0.2358(6) 1.2234(4) 0.7107(4)
H14 H 0.2297 1.1844 0.7720
H15 H 0.1764 1.2737 0.6976
H16 H 0.3230 1.2749 0.7348
C15 C -0.0942(4) 0.7230(4) 0.0169(4)
H17 H -0.0540 0.7588 0.1013
H18 H -0.0752 0.6452 -0.0026
H19 H -0.1867 0.7092 -0.0085
Ni1_2 Ni 1.0000 1.0000 0.0000
O1A O -0.06900(19) 0.99447(18) -0.17592(18)
O2A O -0.1437(2) 0.79227(18) -0.26811(18)
O3A O 0.0448(2) 1.19443(18) 0.04142(19)
H1A H 0.0882 1.2143 0.1250
N1A N 0.8142(2) 0.9963(2) 0.0042(2)
N1A_2 N -0.1858(2) 0.9963(2) 0.0042(2)
C1A C 0.7978(3) 1.0816(3) 0.0828(3)
H4A H 0.8714 1.1409 0.1401
C2A C 0.6782(3) 1.0869(3) 0.0838(3)
H5A H 0.6726 1.1497 0.1398
C3A C 0.5656(2) 0.9989(2) 0.0016(2)
C4A C 0.5843(3) 0.9080(3) -0.0772(3)
H6A H 0.5130 0.8450 -0.1330
C5A C 0.7073(3) 0.9107(3) -0.0732(3)
H7A H 0.7162 0.8489 -0.1280
C6A C -0.1459(3) 0.9364(3) -0.3856(3)
C7A C -0.1346(3) 1.0594(3) -0.3899(3)
H8A H -0.1116 1.1211 -0.3203
C8A C -0.1569(4) 1.0912(3) -0.4959(4)
C9A C -0.1899(4) 0.9972(4) -0.5985(4)
H9A H -0.2045 1.0177 -0.6703
C10A C -0.2018(4) 0.8752(3) -0.5973(3)
C11A C -0.1797(3) 0.8448(3) -0.4898(3)
H10A H -0.1876 0.7624 -0.4877
C12A C -0.1182(3) 0.9046(3) -0.2689(3)
C13A C -0.1441(6) 1.2259(4) -0.4995(5)
H11A H -0.0565 1.2653 -0.4887
H12A H -0.2030 1.2286 -0.5750
H13A H -0.1649 1.2688 -0.4372
C14A C -0.2358(6) 0.7766(4) -0.7107(4)
H14A H -0.2297 0.8156 -0.7720
H15A H -0.1764 0.7263 -0.6976
H16A H -0.3230 0.7251 -0.7348
C15A C 0.0942(4) 1.2770(4) -0.0169(4)
H17A H 0.0540 1.2412 -0.1013
H18A H 0.0752 1.3548 0.0026
H19A H 0.1867 1.2908 0.0085
Ni2 Ni 0.5000 0.5000 0.5000
O4 O 0.59618(19) 0.49639(17) 0.38549(17)
O5 O 0.4360(2) 0.4137(2) 0.2065(2)
O6 O 0.32098(18) 0.44245(17) 0.35824(17)
H2 H 0.2776 0.3771 0.3610
H3 H 0.3460 0.4313 0.3021
N2 N 0.5013(2) 0.31274(19) 0.4991(2)
C16 C 0.4707(3) 0.2254(3) 0.4006(3)
H20 H 0.4493 0.2476 0.3292
C17 C 0.4685(4) 0.1029(3) 0.3974(3)
H21 H 0.4447 0.0452 0.3249
C18 C 0.5012(3) 0.0661(2) 0.5001(2)
C19 C 0.5299(5) 0.1560(3) 0.6013(3)
H22 H 0.5503 0.1361 0.6737
C20 C 0.5291(5) 0.2769(3) 0.5975(3)
H23 H 0.5493 0.3357 0.6684
C21 C 0.6532(3) 0.4340(3) 0.2219(3)
C22 C 0.6175(4) 0.4040(3) 0.0995(3)
H24 H 0.5319 0.3942 0.0502
C23 C 0.7091(4) 0.3887(4) 0.0501(3)
C24 C 0.8355(4) 0.4041(4) 0.1260(4)
H25 H 0.8974 0.3951 0.0936
C25 C 0.8734(3) 0.4322(3) 0.2478(3)
C26 C 0.7801(3) 0.4477(3) 0.2948(3)
H26 H 0.8036 0.4676 0.3767
C27 C 0.5538(3) 0.4501(2) 0.2747(3)
C28 C 0.6690(6) 0.3530(6) -0.0837(4)
H27 H 0.6249 0.4098 -0.1167
H28 H 0.6119 0.2700 -0.1166
H29 H 0.7451 0.3567 -0.1024
C29 C 1.0105(4) 0.4430(4) 0.3272(4)
H30 H 1.0216 0.3614 0.3260
H31 H 1.0271 0.4870 0.4069
H32 H 1.0704 0.4876 0.2992
Ni2_2 Ni 0.5000 -0.5000 0.5000
O4A O 0.40382(19) 0.50361(17) 0.61451(17)
O5A O 0.5640(2) 0.5863(2) 0.7935(2)
O6A O 0.67902(18) 0.55755(17) 0.64176(17)
H2A H 0.7224 0.6229 0.6390
H3A H 0.6540 0.5687 0.6979
N2A N 0.4987(2) -0.31274(19) 0.5009(2)
N2A_2 N 0.4987(2) 0.68726(19) 0.5009(2)
C16A C 0.5293(3) -0.2254(3) 0.5994(3)
H20A H 0.5507 -0.2476 0.6708
C17A C 0.5315(4) -0.1029(3) 0.6026(3)
H21A H 0.5553 -0.0452 0.6751
C18A C 0.4988(3) -0.0661(2) 0.4999(2)
C19A C 0.4701(5) -0.1560(3) 0.3987(3)
H22A H 0.4497 -0.1361 0.3263
C20A C 0.4709(5) -0.2769(3) 0.4025(3)
H23A H 0.4507 -0.3357 0.3316
C21A C 0.3468(3) 0.5660(3) 0.7781(3)
C22A C 0.3825(4) 0.5960(3) 0.9005(3)
H24A H 0.4681 0.6058 0.9498
C23A C 0.2909(4) 0.6113(4) 0.9499(3)
C24A C 0.1645(4) 0.5959(4) 0.8740(4)
H25A H 0.1026 0.6049 0.9064
C25A C 0.1266(3) 0.5678(3) 0.7522(3)
C26A C 0.2199(3) 0.5523(3) 0.7052(3)
H26A H 0.1964 0.5324 0.6233
C27A C 0.4462(3) 0.5499(2) 0.7253(3)
C28A C 0.3310(6) 0.6470(6) 1.0837(4)
H27A H 0.3751 0.5902 1.1167
H28A H 0.3881 0.7300 1.1166
H29A H 0.2549 0.6433 1.1024
C29A C -0.0105(4) 0.5570(4) 0.6728(4)
H30A H -0.0216 0.6386 0.6740
H31A H -0.0271 0.5130 0.5931
H32A H -0.0704 0.5124 0.7008
loop_
_geom_bond_atom_site_label_1
_geom_bond_atom_site_label_2
_geom_bond_site_symmetry_1
_geom_bond_site_symmetry_2
Ni1 O1 1_555 1_555
Ni2 O4 1_555 1_555
O1 C12 1_555 1_555
O2 C12 1_555 1_555
O3 Ni1 1_555 1_555
H1 O3 1_555 1_555
O4 C27 1_555 1_555
O5 C27 1_555 1_555
O6 Ni2 1_555 1_555
H2 O6 1_555 1_555
H3 O6 1_555 1_555
N1 Ni1 1_555 1_555
N2 Ni2 1_555 1_555
C1 N1 1_555 1_555
H4 C1 1_555 1_555
C2 C1 1_555 1_555
H5 C2 1_555 1_555
C3 C2 1_555 1_555
C4 C3 1_555 1_555
H6 C4 1_555 1_555
C5 N1 1_555 1_555
H7 C5 1_555 1_555
C6 C7 1_555 1_555
C7 H8 1_555 1_555
C8 C7 1_555 1_555
C9 C8 1_555 1_555
H9 C9 1_555 1_555
C10 C9 1_555 1_555
C11 C6 1_555 1_555
H10 C11 1_555 1_555
C12 C6 1_555 1_555
C13 C8 1_555 1_555
H11 C13 1_555 1_555
H12 C13 1_555 1_555
H13 C13 1_555 1_555
C14 C10 1_555 1_555
H14 C14 1_555 1_555
H15 C14 1_555 1_555
H16 C14 1_555 1_555
C15 O3 1_555 1_555
H17 C15 1_555 1_555
H18 C15 1_555 1_555
H19 C15 1_555 1_555
C16 N2 1_555 1_555
H20 C16 1_555 1_555
C17 C16 1_555 1_555
H21 C17 1_555 1_555
C18 C17 1_555 1_555
C19 C18 1_555 1_555
H22 C19 1_555 1_555
C20 N2 1_555 1_555
H23 C20 1_555 1_555
C21 C22 1_555 1_555
C22 H24 1_555 1_555
C23 C22 1_555 1_555
C24 C23 1_555 1_555
H25 C24 1_555 1_555
C25 C24 1_555 1_555
C26 C21 1_555 1_555
H26 C26 1_555 1_555
C27 C21 1_555 1_555
C28 C23 1_555 1_555
H27 C28 1_555 1_555
H28 C28 1_555 1_555
H29 C28 1_555 1_555
C29 C25 1_555 1_555
H30 C29 1_555 1_555
H31 C29 1_555 1_555
H32 C29 1_555 1_555
Ni1_2 N1A 1_555 1_555
Ni2_2 N2A 1_555 1_555
O1A Ni1 1_555 1_555
O2A C12A 1_555 1_555
O3A Ni1 1_555 1_555
H1A O3A 1_555 1_555
O4A Ni2 1_555 1_555
O5A C27A 1_555 1_555
O6A Ni2 1_555 1_555
H2A O6A 1_555 1_555
H3A O6A 1_555 1_555
N1A C1A 1_555 1_555
N1A_2 Ni1 1_555 1_555
N2A C16A 1_555 1_555
N2A_2 Ni2 1_555 1_555
C1A H4A 1_555 1_555
C2A C1A 1_555 1_555
H5A C2A 1_555 1_555
C3A C3 1_555 1_555
C4A C3A 1_555 1_555
H6A C4A 1_555 1_555
C5A N1A 1_555 1_555
H7A C5A 1_555 1_555
C6A C7A 1_555 1_555
C7A H8A 1_555 1_555
C8A C7A 1_555 1_555
C9A C8A 1_555 1_555
H9A C9A 1_555 1_555
C10A C9A 1_555 1_555
C11A C6A 1_555 1_555
H10A C11A 1_555 1_555
C12A O1A 1_555 1_555
C13A C8A 1_555 1_555
H11A C13A 1_555 1_555
H12A C13A 1_555 1_555
H13A C13A 1_555 1_555
C14A C10A 1_555 1_555
H14A C14A 1_555 1_555
H15A C14A 1_555 1_555
H16A C14A 1_555 1_555
C15A O3A 1_555 1_555
H17A C15A 1_555 1_555
H18A C15A 1_555 1_555
H19A C15A 1_555 1_555
C16A H20A 1_555 1_555
C17A C16A 1_555 1_555
H21A C17A 1_555 1_555
C18A C18 1_555 1_555
C19A C18A 1_555 1_555
H22A C19A 1_555 1_555
C20A N2A 1_555 1_555
H23A C20A 1_555 1_555
C21A C22A 1_555 1_555
C22A H24A 1_555 1_555
C23A C22A 1_555 1_555
C24A C23A 1_555 1_555
H25A C24A 1_555 1_555
C25A C24A 1_555 1_555
C26A C21A 1_555 1_555
H26A C26A 1_555 1_555
C27A O4A 1_555 1_555
C28A C23A 1_555 1_555
H27A C28A 1_555 1_555
H28A C28A 1_555 1_555
H29A C28A 1_555 1_555
C29A C25A 1_555 1_555
H30A C29A 1_555 1_555
H31A C29A 1_555 1_555
H32A C29A 1_555 1_555
C4 C5 1_555 1_555
C10 C11 1_555 1_555
C19 C20 1_555 1_555
C25 C26 1_555 1_555
C2A C3A 1_555 1_555
C4A C5A 1_555 1_555
C6A C12A 1_555 1_555
C10A C11A 1_555 1_555
C17A C18A 1_555 1_555
C19A C20A 1_555 1_555
C21A C27A 1_555 1_555
C25A C26A 1_555 1_555

#END
