
#######################################################################
#
#                 Cambridge Crystallographic Data Centre
#                                CCDC 
#
#######################################################################
#
# If this CIF has been generated from an entry in the Cambridge 
# Structural Database, then it will include bibliographic, chemical, 
# crystal, experimental, refinement or atomic coordinate data resulting 
# from the CCDC's data processing and validation procedures.
#
#######################################################################

data_YUPGEW
_symmetry_cell_setting           monoclinic
_symmetry_space_group_name_H-M   'P 21/n'
_symmetry_Int_Tables_number      14
_space_group_name_Hall           '-P 2yn'
loop_
_symmetry_equiv_pos_site_id
_symmetry_equiv_pos_as_xyz
1 x,y,z
2 1/2-x,1/2+y,1/2-z
3 -x,-y,-z
4 1/2+x,1/2-y,1/2+z
_cell_length_a                   11.719(5)
_cell_length_b                   11.918(4)
_cell_length_c                   13.595(6)
_cell_angle_alpha                90
_cell_angle_beta                 110.474(17)
_cell_angle_gamma                90
_cell_volume                     1778.83
loop_
_atom_site_label
_atom_site_type_symbol
_atom_site_fract_x
_atom_site_fract_y
_atom_site_fract_z
Cd1 Cd 0.201567(17) 0.435967(16) 0.070852(15)
O1 O 0.33753(19) 0.29050(18) 0.10111(16)
O2 O 0.4650(2) 0.1796(2) 0.21971(19)
O3 O 0.56113(19) 0.18903(18) 0.47497(18)
O4 O 0.4328(2) 0.05288(16) 0.39515(17)
N1 N 0.2385(2) 0.3638(2) 0.24121(18)
N2 N 0.3125(2) 0.2771(2) 0.44287(19)
N3 N 0.3665(2) 0.5646(2) 0.1408(2)
N4 N 0.2544(2) 0.5084(2) -0.0634(2)
C1 C 0.3255(2) 0.2851(2) 0.2715(2)
C2 C 0.3620(2) 0.2420(2) 0.3733(2)
C3 C 0.2250(3) 0.3539(3) 0.4099(2)
H1 H 0.1874 0.3788 0.4559
C4 C 0.1880(3) 0.3983(3) 0.3093(2)
H2 H 0.1272 0.4526 0.2894
C5 C 0.3811(2) 0.2482(2) 0.1915(2)
C6 C 0.4599(2) 0.1532(2) 0.4162(2)
C7 C 0.4176(4) 0.5918(3) 0.2417(3)
H3 H 0.3844 0.5623 0.2891
C8 C 0.5176(4) 0.6617(4) 0.2794(4)
H4 H 0.5499 0.6807 0.3502
C9 C 0.5676(4) 0.7018(4) 0.2095(5)
H5 H 0.6363 0.7474 0.2328
C10 C 0.5164(3) 0.6750(3) 0.1046(4)
H6 H 0.5499 0.7021 0.0565
C11 C 0.3868(4) 0.6209(4) -0.1193(4)
H7 H 0.4526 0.6698 -0.1031
C12 C 0.3258(4) 0.5906(4) -0.2216(4)
H8 H 0.3503 0.6183 -0.2750
C13 C 0.2286(4) 0.5195(4) -0.2441(3)
H9 H 0.1859 0.4980 -0.3130
C14 C 0.1955(3) 0.4806(4) -0.1633(3)
H10 H 0.1289 0.4327 -0.1788
C15 C 0.4137(3) 0.6067(3) 0.0719(3)
C16 C 0.3503(3) 0.5784(3) -0.0403(3)
Cd1C Cd 0.701567(17) 0.064033(16) 0.570852(15)
Cd1A Cd 0.298433(17) -0.064033(16) 0.429148(15)
O3C O 0.06113(19) 0.31097(18) -0.02503(18)
O4A O 0.0672(2) 0.55288(16) 0.10485(17)
O5 O 0.6358(9) 0.4149(7) 0.4855(7)
O8 O 0.9047(9) 0.4299(6) 0.5150(6)
O6? O 0.5700(10) 0.4347(7) 0.5058(8)
O7? O 0.8325(15) 0.4111(11) 0.4823(11)
O9? O 0.9727(19) 0.4367(13) 0.5375(14)
O10? O 0.7567(15) 0.3927(13) 0.4603(12)
loop_
_geom_bond_atom_site_label_1
_geom_bond_atom_site_label_2
_geom_bond_site_symmetry_1
_geom_bond_site_symmetry_2
Cd1 O1 1_555 1_555
O1 C5 1_555 1_555
O2 C5 1_555 1_555
O3 C6 1_555 1_555
O4 C6 1_555 1_555
N1 Cd1 1_555 1_555
N2 C2 1_555 1_555
N3 Cd1 1_555 1_555
N4 Cd1 1_555 1_555
C1 N1 1_555 1_555
C2 C1 1_555 1_555
C3 N2 1_555 1_555
H1 C3 1_555 1_555
C4 N1 1_555 1_555
H2 C4 1_555 1_555
C5 C1 1_555 1_555
C6 C2 1_555 1_555
C7 N3 1_555 1_555
H3 C7 1_555 1_555
C8 C7 1_555 1_555
H4 C8 1_555 1_555
C9 C8 1_555 1_555
H5 C9 1_555 1_555
C10 C9 1_555 1_555
H6 C10 1_555 1_555
C11 H7 1_555 1_555
C12 C11 1_555 1_555
H8 C12 1_555 1_555
C13 C12 1_555 1_555
H9 C13 1_555 1_555
C14 N4 1_555 1_555
H10 C14 1_555 1_555
C15 N3 1_555 1_555
C16 N4 1_555 1_555
Cd1C O3 1_555 1_555
Cd1A O4 1_555 1_555
O3C Cd1 1_555 1_555
O4A Cd1 1_555 1_555
C3 C4 1_555 1_555
C10 C15 1_555 1_555
C11 C16 1_555 1_555
C13 C14 1_555 1_555
C15 C16 1_555 1_555

#END
