
#######################################################################
#
#                 Cambridge Crystallographic Data Centre
#                                CCDC 
#
#######################################################################
#
# If this CIF has been generated from an entry in the Cambridge 
# Structural Database, then it will include bibliographic, chemical, 
# crystal, experimental, refinement or atomic coordinate data resulting 
# from the CCDC's data processing and validation procedures.
#
#######################################################################

data_YUPKUQ
_symmetry_cell_setting           monoclinic
_symmetry_space_group_name_H-M   'P 21/n'
_symmetry_Int_Tables_number      14
_space_group_name_Hall           '-P 2yn'
loop_
_symmetry_equiv_pos_site_id
_symmetry_equiv_pos_as_xyz
1 x,y,z
2 1/2-x,1/2+y,1/2-z
3 -x,-y,-z
4 1/2+x,1/2-y,1/2+z
_cell_length_a                   15.049(3)
_cell_length_b                   7.8882(16)
_cell_length_c                   18.152(4)
_cell_angle_alpha                90
_cell_angle_beta                 97.98(3)
_cell_angle_gamma                90
_cell_volume                     2133.95
loop_
_atom_site_label
_atom_site_type_symbol
_atom_site_fract_x
_atom_site_fract_y
_atom_site_fract_z
Ca1 Ca 0.87383(3) 0.71044(5) 0.53951(2)
Ca2 Ca 1.26386(3) 0.80109(5) 0.39303(2)
S1 S 1.02815(3) 0.64119(6) 0.40496(3)
O1 O 0.97834(9) 0.76566(18) 0.44262(7)
O2 O 0.99871(9) 0.46836(17) 0.41860(7)
O3 O 1.12501(9) 0.65807(19) 0.42318(8)
S2 S 1.14708(3) 0.47417(6) 0.27510(3)
O4 O 1.22370(9) 0.58433(18) 0.29941(8)
O5 O 1.15539(9) 0.39076(18) 0.20509(7)
O6 O 1.12829(9) 0.35465(18) 0.33174(7)
C1 C 1.00221(13) 0.6809(2) 0.30850(11)
C2 C 1.05126(13) 0.6100(2) 0.25506(11)
C3 C 1.02535(13) 0.6486(3) 0.18050(11)
H1 H 1.0576 0.6015 0.144
C4 C 0.95292(14) 0.7551(3) 0.15850(11)
H2 H 0.9369 0.7824 0.1074
C5 C 0.90408(14) 0.8215(3) 0.21107(11)
H3 H 0.8538 0.8922 0.1959
C6 C 0.92874(13) 0.7845(3) 0.28591(11)
H4 H 0.8952 0.8303 0.3219
S3 S 0.78205(3) 1.09352(6) 0.44095(3)
O7 O 0.84277(9) 1.15729(19) 0.39208(8)
O8 O 0.82642(9) 0.99040(18) 0.50248(8)
O9 O 0.72931(9) 1.22891(18) 0.46886(8)
S4 S 0.64052(3) 0.81054(6) 0.51010(3)
O10 O 0.64393(9) 0.97590(18) 0.54580(8)
O11 O 0.71728(9) 0.70367(19) 0.53793(8)
O12 O 0.55680(9) 0.72159(19) 0.51346(8)
C7 C 0.70672(13) 0.9559(3) 0.38509(11)
C8 C 0.64643(13) 0.8442(3) 0.41333(11)
C9 C 0.58905(14) 0.7469(3) 0.36354(12)
H5 H 0.5483 0.6709 0.3819
C10 C 0.59051(15) 0.7593(3) 0.28730(12)
H6 H 0.5503 0.6932 0.254
C11 C 0.65021(15) 0.8675(3) 0.25997(11)
H7 H 0.6518 0.8749 0.2079
C12 C 0.70805(14) 0.9655(3) 0.30907(11)
H8 H 0.749 1.0401 0.2902
O13 O 0.97783(10) 0.9039(2) 0.60154(8)
O14 O 0.81802(11) 0.5396(2) 0.43442(9)
O15 O 1.39006(11) 0.6273(2) 0.42854(9)
O16 O 1.16316(12) 0.9818(2) 0.31771(9)
H9 H 1.0294(15) 0.881(4) 0.6099(15)
H10 H 0.9810(17) 0.985(3) 0.5814(14)
H11 H 0.7822(16) 0.474(3) 0.4419(15)
H12 H 0.8591(17) 0.491(4) 0.4249(17)
H13 H 1.389(2) 0.534(4) 0.4351(17)
H14 H 1.436(2) 0.660(5) 0.454(2)
H15 H 1.1856(19) 1.027(4) 0.2861(16)
H16 H 1.119(2) 1.027(4) 0.3259(18)
Ca1B Ca 1.12617(3) 0.28956(5) 0.46049(2)
Ca2A Ca 1.23614(3) 0.30109(5) 0.10697(2)
Ca2B Ca 0.73614(3) 1.19891(5) 0.60697(2)
O2B O 1.00129(9) 0.53164(17) 0.58140(7)
O3B O 0.87499(9) 0.34193(19) 0.57682(8)
O5A O 1.34461(9) 0.89076(18) 0.29491(7)
O6B O 0.87171(9) 0.64535(18) 0.66826(7)
O8B O 1.17358(9) 1.00960(18) 0.49752(8)
O9B O 1.27069(9) 0.77109(18) 0.53114(8)
O10B O 1.35607(9) 1.02410(18) 0.45420(8)
loop_
_geom_bond_atom_site_label_1
_geom_bond_atom_site_label_2
_geom_bond_site_symmetry_1
_geom_bond_site_symmetry_2
Ca1 O1 1_555 1_555
Ca2 O3 1_555 1_555
S1 O1 1_555 1_555
O2 S1 1_555 1_555
O3 S1 1_555 1_555
S2 O4 1_555 1_555
O4 Ca2 1_555 1_555
O5 S2 1_555 1_555
O6 S2 1_555 1_555
C1 S1 1_555 1_555
C2 S2 1_555 1_555
C3 C2 1_555 1_555
H1 C3 1_555 1_555
C4 C3 1_555 1_555
H2 C4 1_555 1_555
C5 C4 1_555 1_555
H3 C5 1_555 1_555
C6 C1 1_555 1_555
H4 C6 1_555 1_555
S3 O7 1_555 1_555
O8 Ca1 1_555 1_555
O9 S3 1_555 1_555
S4 O10 1_555 1_555
O10 Ca2B 1_555 1_555
O11 Ca1 1_555 1_555
O12 S4 1_555 1_555
C7 S3 1_555 1_555
C8 S4 1_555 1_555
C9 C8 1_555 1_555
H5 C9 1_555 1_555
C10 C9 1_555 1_555
H6 C10 1_555 1_555
C11 C10 1_555 1_555
H7 C11 1_555 1_555
C12 C7 1_555 1_555
H8 C12 1_555 1_555
O13 Ca1 1_555 1_555
O14 Ca1 1_555 1_555
O15 Ca2 1_555 1_555
O16 Ca2 1_555 1_555
H9 O13 1_555 1_555
H10 O13 1_555 1_555
H11 O14 1_555 1_555
H12 O14 1_555 1_555
H13 O15 1_555 1_555
H14 O15 1_555 1_555
H15 O16 1_555 1_555
H16 O16 1_555 1_555
Ca1B O2 1_555 1_555
Ca2A O5 1_555 1_555
Ca2B O8 1_555 1_555
O2B Ca1 1_555 1_555
O3B Ca1 1_555 1_555
O5A Ca2 1_555 1_555
O6B Ca1 1_555 1_555
O8B Ca2 1_555 1_555
O9B Ca2 1_555 1_555
O10B Ca2 1_555 1_555
O3 Ca1B 1_555 1_555
O6 Ca1B 1_555 1_555
C1 C2 1_555 1_555
C5 C6 1_555 1_555
S3 O8 1_555 1_555
O9 Ca2B 1_555 1_555
S4 O11 1_555 1_555
C7 C8 1_555 1_555
C11 C12 1_555 1_555

#END
