
#######################################################################
#
#                 Cambridge Crystallographic Data Centre
#                                CCDC 
#
#######################################################################
#
# If this CIF has been generated from an entry in the Cambridge 
# Structural Database, then it will include bibliographic, chemical, 
# crystal, experimental, refinement or atomic coordinate data resulting 
# from the CCDC's data processing and validation procedures.
#
#######################################################################

data_YUPLAX
_symmetry_cell_setting           orthorhombic
_symmetry_space_group_name_H-M   'I b a 2'
_symmetry_Int_Tables_number      45
_space_group_name_Hall           'I 2 -2c'
loop_
_symmetry_equiv_pos_site_id
_symmetry_equiv_pos_as_xyz
1 x,y,z
2 -x,-y,z
3 -x,y,1/2+z
4 x,-y,1/2+z
5 1/2+x,1/2+y,1/2+z
6 1/2-x,1/2-y,1/2+z
7 1/2-x,1/2+y,z
8 1/2+x,1/2-y,z
_cell_length_a                   15.835(3)
_cell_length_b                   15.877(3)
_cell_length_c                   21.549(4)
_cell_angle_alpha                90
_cell_angle_beta                 90
_cell_angle_gamma                90
_cell_volume                     5417.68
loop_
_atom_site_label
_atom_site_type_symbol
_atom_site_fract_x
_atom_site_fract_y
_atom_site_fract_z
Ca1 Ca 0.67840(3) 0.21356(4) 0.49871(3)
Ca2 Ca 0.50000 0.00000 0.50204(4)
Ca3 Ca 0.50000 0.50000 0.47249(4)
S1 S 0.53069(4) 0.19115(4) 0.39952(4)
S2 S 0.67940(4) 0.02839(5) 0.39882(4)
S3 S 0.68365(4) 0.43292(4) 0.57073(4)
S4 S 0.50995(4) 0.31015(4) 0.58391(3)
O2 O 0.78904(14) 0.15657(16) 0.55952(11)
O3 O 0.78906(18) 0.28820(17) 0.44268(14)
O4 O 0.42785(16) 0.09665(17) 0.56853(12)
O5 O 0.40217(15) 0.40174(15) 0.42006(10)
O6 O 0.41553(14) 0.57607(14) 0.39997(11)
O7 O 0.61841(15) 0.08146(14) 0.55628(11)
O8 O 0.45135(13) 0.23194(13) 0.38403(9)
O9 O 0.59897(13) 0.25228(12) 0.40949(10)
O10 O 0.52658(13) 0.13397(13) 0.45191(9)
O11 O 0.62047(12) -0.01866(13) 0.43713(10)
O12 O 0.74565(13) -0.02506(14) 0.37403(10)
O13 O 0.71427(12) 0.10271(13) 0.43036(9)
O14 O 0.76556(12) 0.46619(13) 0.58998(9)
O15 O 0.69177(13) 0.35301(12) 0.53874(10)
O16 O 0.63547(13) 0.49532(12) 0.53571(10)
O17 O 0.50152(13) 0.36924(12) 0.53284(10)
O18 O 0.56814(12) 0.24072(12) 0.57082(10)
O19 O 0.42977(12) 0.27679(13) 0.60596(10)
C3 C 0.56048(19) 0.13171(19) 0.33345(14)
C4 C 0.62221(18) 0.06671(18) 0.33291(14)
C5 C 0.6408(2) 0.0272(2) 0.27617(14)
H6 H 0.6816 -0.0166 0.275
C6 C 0.6006(2) 0.0511(2) 0.22226(15)
H7 H 0.6135 0.0232 0.1844
C7 C 0.5417(2) 0.1151(2) 0.22283(15)
H8 H 0.5148 0.1317 0.1854
C8 C 0.5218(2) 0.1550(2) 0.27805(15)
H9 H 0.4812 0.1991 0.2781
C9 C 0.62810(18) 0.41577(19) 0.64165(14)
C10 C 0.55486(19) 0.36673(19) 0.64728(13)
C11 C 0.51427(19) 0.3598(2) 0.70414(15)
H10 H 0.4638 0.3278 0.7075
C12 C 0.5476(2) 0.4001(2) 0.75682(15)
H11 H 0.5201 0.3951 0.7958
C13 C 0.6203(2) 0.4469(2) 0.75141(16)
H12 H 0.6431 0.4739 0.787
C14 C 0.6607(2) 0.4553(2) 0.69439(15)
H13 H 0.7107 0.4881 0.6913
H14 H 0.836(2) 0.186(2) 0.5717(17)
H15 H 0.807(3) 0.110(3) 0.5553(19)
H16 H 0.777(3) 0.339(3) 0.440(2)
H17 H 0.832(3) 0.289(3) 0.4234(19)
H18 H 0.438(3) 0.134(2) 0.5730(19)
H19 H 0.367(3) 0.090(2) 0.5788(18)
H20 H 0.417(2) 0.351(2) 0.4116(16)
H21 H 0.347(3) 0.399(3) 0.4194(19)
H22 H 0.4086(19) 0.629(2) 0.4027(15)
H23 H 0.376(2) 0.556(2) 0.3943(15)
H24 H 0.608(3) 0.107(3) 0.583(2)
H25 H 0.663(3) 0.064(3) 0.570(2)
Ca1A Ca 0.32160(3) -0.21356(4) 0.49871(3)
Ca3_2 Ca 0.50000 -0.50000 0.47249(4)
S1A S 0.46931(4) -0.19115(4) 0.39952(4)
S2A S 0.32060(4) -0.02839(5) 0.39882(4)
S3A S 0.31635(4) -0.43292(4) 0.57073(4)
S4A S 0.49005(4) -0.31015(4) 0.58391(3)
O2A O 0.21096(14) -0.15657(16) 0.55952(11)
O3A O 0.21094(18) -0.28820(17) 0.44268(14)
O4A O 0.57215(16) -0.09665(17) 0.56853(12)
O5A O 0.59783(15) 0.59826(15) 0.42006(10)
O6A O 0.58447(14) 0.42393(14) 0.39997(11)
O7A O 0.38159(15) -0.08146(14) 0.55628(11)
O8A O 0.54865(13) -0.23194(13) 0.38403(9)
O9A O 0.40103(13) -0.25228(12) 0.40949(10)
O10A O 0.47342(13) -0.13397(13) 0.45191(9)
O11A O 0.37953(12) 0.01866(13) 0.43713(10)
O12A O 0.25435(13) 0.02506(14) 0.37403(10)
O13A O 0.28573(12) -0.10271(13) 0.43036(9)
O14A O 0.23444(12) -0.46619(13) 0.58998(9)
O15A O 0.30823(13) -0.35301(12) 0.53874(10)
O16A O 0.36453(13) -0.49532(12) 0.53571(10)
O16A_2 O 0.36453(13) 0.50468(12) 0.53571(10)
O17A O 0.49848(13) -0.36924(12) 0.53284(10)
O17A_2 O 0.49848(13) 0.63076(12) 0.53284(10)
O18A O 0.43186(12) -0.24072(12) 0.57082(10)
O19A O 0.57023(12) -0.27679(13) 0.60596(10)
C3A C 0.43952(19) -0.13171(19) 0.33345(14)
C4A C 0.37779(18) -0.06671(18) 0.33291(14)
C5A C 0.3592(2) -0.0272(2) 0.27617(14)
H6A H 0.3184 0.0166 0.275
C6A C 0.3994(2) -0.0511(2) 0.22226(15)
H7A H 0.3865 -0.0232 0.1844
C7A C 0.4583(2) -0.1151(2) 0.22283(15)
H8A H 0.4852 -0.1317 0.1854
C8A C 0.4782(2) -0.1550(2) 0.27805(15)
H9A H 0.5188 -0.1991 0.2781
C9A C 0.37190(18) -0.41577(19) 0.64165(14)
C10A C 0.44514(19) -0.36673(19) 0.64728(13)
C11A C 0.48573(19) -0.3598(2) 0.70414(15)
H10A H 0.5362 -0.3278 0.7075
C12A C 0.4524(2) -0.4001(2) 0.75682(15)
H11A H 0.4799 -0.3951 0.7958
C13A C 0.3797(2) -0.4469(2) 0.75141(16)
H12A H 0.3569 -0.4739 0.787
C14A C 0.3393(2) -0.4553(2) 0.69439(15)
H13A H 0.2893 -0.4881 0.6913
H14A H 0.164(2) -0.186(2) 0.5717(17)
H15A H 0.193(3) -0.110(3) 0.5553(19)
H16A H 0.223(3) -0.339(3) 0.440(2)
H17A H 0.168(3) -0.289(3) 0.4234(19)
H18A H 0.562(3) -0.134(2) 0.5730(19)
H19A H 0.633(3) -0.090(2) 0.5788(18)
H20A H 0.583(2) 0.649(2) 0.4116(16)
H21A H 0.653(3) 0.601(3) 0.4194(19)
H22A H 0.5914(19) 0.371(2) 0.4027(15)
H23A H 0.624(2) 0.444(2) 0.3943(15)
H24A H 0.392(3) -0.107(3) 0.583(2)
H25A H 0.337(3) -0.064(3) 0.570(2)
O1 O 0.6985(2) 0.13260(18) 0.67951(14)
C1 C 0.7754(4) 0.2136(4) 0.7545(3)
H1 H 0.7688 0.2625 0.7818
H2 H 0.8228 0.223 0.7262
H3 H 0.7863 0.1633 0.7797
C2 C 0.7027(3) 0.2021(3) 0.7208(3)
H4 H 0.6928 0.2539 0.6963
H5 H 0.6553 0.1968 0.7505
H26 H 0.731(4) 0.148(4) 0.654(2)
loop_
_geom_bond_atom_site_label_1
_geom_bond_atom_site_label_2
_geom_bond_site_symmetry_1
_geom_bond_site_symmetry_2
Ca1 O2 1_555 1_555
Ca2 O4 1_555 1_555
Ca3 O5 1_555 1_555
S1 O8 1_555 1_555
S2 O11 1_555 1_555
S3 O14 1_555 1_555
S4 O17 1_555 1_555
O1 C2 1_555 1_555
O2 H14 1_555 1_555
O3 Ca1 1_555 1_555
O4 H18 1_555 1_555
O5 H20 1_555 1_555
O6 Ca3 1_555 1_555
O7 Ca1 1_555 1_555
O9 Ca1 1_555 1_555
O10 Ca1 1_555 1_555
O11 Ca2 1_555 1_555
O12 S2 1_555 1_555
O13 Ca1 1_555 1_555
O15 Ca1 1_555 1_555
O16 Ca3 1_555 1_555
O17 Ca3 1_555 1_555
O18 Ca1 1_555 1_555
O19 S4 1_555 1_555
C1 H1 1_555 1_555
H2 C1 1_555 1_555
H3 C1 1_555 1_555
C2 C1 1_555 1_555
H4 C2 1_555 1_555
H5 C2 1_555 1_555
C3 S1 1_555 1_555
C4 S2 1_555 1_555
C5 C4 1_555 1_555
H6 C5 1_555 1_555
C6 C5 1_555 1_555
H7 C6 1_555 1_555
C7 C6 1_555 1_555
H8 C7 1_555 1_555
C8 C3 1_555 1_555
H9 C8 1_555 1_555
C9 S3 1_555 1_555
C10 S4 1_555 1_555
C11 C10 1_555 1_555
H10 C11 1_555 1_555
C12 C11 1_555 1_555
H11 C12 1_555 1_555
C13 C12 1_555 1_555
H12 C13 1_555 1_555
C14 C9 1_555 1_555
H13 C14 1_555 1_555
H15 O2 1_555 1_555
H16 O3 1_555 1_555
H17 O3 1_555 1_555
H19 O4 1_555 1_555
H21 O5 1_555 1_555
H22 O6 1_555 1_555
H23 O6 1_555 1_555
H24 O7 1_555 1_555
H25 O7 1_555 1_555
H26 O1 1_555 1_555
Ca1A O2A 1_555 1_555
Ca3_2 O16A 1_555 1_555
S1A O8A 1_555 1_555
S2A O11A 1_555 1_555
S3A O14A 1_555 1_555
S4A O17A 1_555 1_555
O2A H14A 1_555 1_555
O3A Ca1A 1_555 1_555
O4A Ca2 1_555 1_555
O5A Ca3 1_555 1_555
O6A Ca3 1_555 1_555
O7A Ca2 1_555 1_555
O9A Ca1A 1_555 1_555
O10A Ca2 1_555 1_555
O11A Ca2 1_555 1_555
O12A S2A 1_555 1_555
O13A Ca1A 1_555 1_555
O15A Ca1A 1_555 1_555
O16A S3A 1_555 1_555
O16A_2 Ca3 1_555 1_555
O17A Ca3_2 1_555 1_555
O17A_2 Ca3 1_555 1_555
O18A Ca1A 1_555 1_555
O19A S4A 1_555 1_555
C3A S1A 1_555 1_555
C4A S2A 1_555 1_555
C5A C4A 1_555 1_555
H6A C5A 1_555 1_555
C6A C5A 1_555 1_555
H7A C6A 1_555 1_555
C7A C6A 1_555 1_555
H8A C7A 1_555 1_555
C8A C3A 1_555 1_555
H9A C8A 1_555 1_555
C9A S3A 1_555 1_555
C10A S4A 1_555 1_555
C11A C10A 1_555 1_555
H10A C11A 1_555 1_555
C12A C11A 1_555 1_555
H11A C12A 1_555 1_555
C13A C12A 1_555 1_555
H12A C13A 1_555 1_555
C14A C9A 1_555 1_555
H13A C14A 1_555 1_555
H15A O2A 1_555 1_555
H16A O3A 1_555 1_555
H17A O3A 1_555 1_555
H18A O4A 1_555 1_555
H19A O4A 1_555 1_555
H20A O5A 1_555 1_555
H21A O5A 1_555 1_555
H22A O6A 1_555 1_555
H23A O6A 1_555 1_555
H24A O7A 1_555 1_555
H25A O7A 1_555 1_555
Ca2 O7 1_555 1_555
Ca2 O10 1_555 1_555
S1 O9 1_555 1_555
S1 O10 1_555 1_555
S2 O13 1_555 1_555
S3 O15 1_555 1_555
S3 O16 1_555 1_555
S4 O18 1_555 1_555
C3 C4 1_555 1_555
C7 C8 1_555 1_555
C9 C10 1_555 1_555
C13 C14 1_555 1_555
Ca1A O7A 1_555 1_555
Ca1A O10A 1_555 1_555
S1A O9A 1_555 1_555
S1A O10A 1_555 1_555
S2A O13A 1_555 1_555
S3A O15A 1_555 1_555
S4A O18A 1_555 1_555
C3A C4A 1_555 1_555
C7A C8A 1_555 1_555
C9A C10A 1_555 1_555
C13A C14A 1_555 1_555

#END
