
#######################################################################
#
#                 Cambridge Crystallographic Data Centre
#                                CCDC 
#
#######################################################################
#
# If this CIF has been generated from an entry in the Cambridge 
# Structural Database, then it will include bibliographic, chemical, 
# crystal, experimental, refinement or atomic coordinate data resulting 
# from the CCDC's data processing and validation procedures.
#
#######################################################################

data_YUPLIF
_symmetry_cell_setting           orthorhombic
_symmetry_space_group_name_H-M   'P n a 21'
_symmetry_Int_Tables_number      33
_space_group_name_Hall           'P 2c -2n'
loop_
_symmetry_equiv_pos_site_id
_symmetry_equiv_pos_as_xyz
1 x,y,z
2 -x,-y,1/2+z
3 1/2-x,1/2+y,1/2+z
4 1/2+x,1/2-y,z
_cell_length_a                   27.6350(4)
_cell_length_b                   9.2294(4)
_cell_length_c                   9.9090(10)
_cell_angle_alpha                90
_cell_angle_beta                 90
_cell_angle_gamma                90
_cell_volume                     2527.33
loop_
_atom_site_label
_atom_site_type_symbol
_atom_site_fract_x
_atom_site_fract_y
_atom_site_fract_z
Ba1 Ba 0.708271(5) 0.668291(14) 0.500011(17)
Ba2 Ba 0.692298(5) 0.716614(14) 0.99448(2)
C1 C 0.83929(10) 0.6302(3) 0.7870(3)
S1 S 0.78897(2) 0.51919(7) 0.74204(7)
O1 O 0.74453(8) 0.5922(3) 0.7834(2)
O2 O 0.79065(8) 0.5039(3) 0.5951(2)
O3 O 0.79642(10) 0.3796(3) 0.8069(3)
C2 C 0.84177(10) 0.7833(3) 0.7773(3)
S2 S 0.79164(2) 0.90015(7) 0.74341(7)
O4 O 0.76949(9) 0.8541(3) 0.6183(2)
O5 O 0.75996(8) 0.8913(2) 0.8611(2)
O6 O 0.81193(8) 1.0466(2) 0.7333(2)
C3 C 0.88545(12) 0.8531(3) 0.8044(3)
H1 H 0.8874 0.9554 0.7953
C4 C 0.92626(12) 0.7755(4) 0.8445(4)
H2 H 0.9558 0.8246 0.8627
C5 C 0.92352(12) 0.6265(4) 0.8579(4)
H3 H 0.951 0.5734 0.8871
C6 C 0.88071(11) 0.5546(3) 0.8286(3)
H4 H 0.8794 0.4522 0.837
C7 C 0.54297(11) 0.8246(3) 0.5744(3)
S3 S 0.56349(2) 0.66196(7) 0.49346(11)
O7 O 0.61165(9) 0.6936(3) 0.4410(3)
O8 O 0.52941(10) 0.6358(3) 0.3843(3)
O9 O 0.56290(9) 0.5463(3) 0.5940(3)
C8 C 0.57119(11) 0.9094(3) 0.6645(3)
S4 S 0.63174(3) 0.87430(8) 0.71602(7)
O10 O 0.66198(8) 0.9270(3) 0.6056(2)
O11 O 0.63851(9) 0.7185(2) 0.7363(3)
O12 O 0.63844(9) 0.9532(3) 0.8420(2)
C9 C 0.55153(12) 1.0384(4) 0.7125(4)
H5 H 0.5698 1.0951 0.7742
C10 C 0.50595(14) 1.0870(4) 0.6727(4)
H6 H 0.4941 1.1779 0.7031
C11 C 0.47812(13) 1.0009(4) 0.5883(4)
H7 H 0.4465 1.0309 0.5634
C12 C 0.49662(11) 0.8702(4) 0.5401(3)
H8 H 0.4772 0.8114 0.483
O13 O 0.79676(9) 0.6952(3) 0.3667(2)
H9 H 0.8172 0.627 0.376
H10 H 0.7912 0.699 0.2823
O14 O 0.65858(9) 0.4288(3) 0.6173(2)
H11 H 0.6638 0.457 0.698
H12 H 0.6293 0.455 0.602
O15 O 0.78585(9) 0.6803(3) 1.0883(3)
H13 H 0.8040 0.607 1.079
H14 H 0.8043 0.752 1.070
O16 O 0.65342(9) 0.4540(3) 0.9088(3)
H15 H 0.6683 0.375 0.900
H16 H 0.6258 0.433 0.939
O17 O 0.59884(14) 0.7105(4) 1.0987(4)
H17 H 0.611 0.753 1.167
H18 H 0.584 0.637 1.131
Ba1B Ba 0.791729(5) 0.168291(14) 1.000011(17)
Ba1B_2 Ba 0.791729(5) 1.168291(14) 1.000011(17)
Ba2B Ba 0.807702(5) 0.216614(14) 0.49448(2)
Ba2B_2 Ba 0.807702(5) 1.216614(14) 0.49448(2)
O2B O 0.70935(8) 1.0039(3) 1.0951(2)
O3B O 0.70358(10) 0.8796(3) 0.3069(3)
O5B O 0.74004(8) 0.3913(2) 0.3611(2)
O6B O 0.68807(8) 0.5466(2) 0.2333(2)
O6B_2 O 0.68807(8) 0.5466(2) 1.2333(2)
O18 O 0.55571(12) 0.5305(4) 0.8908(4)
H19 H 0.5510 0.451 0.846
H20 H 0.5670 0.588 0.830
loop_
_geom_bond_atom_site_label_1
_geom_bond_atom_site_label_2
_geom_bond_site_symmetry_1
_geom_bond_site_symmetry_2
Ba1 O1 1_555 1_555
Ba2 O1 1_555 1_555
C1 S1 1_555 1_555
S1 O1 1_555 1_555
O2 Ba1 1_555 1_555
O3 S1 1_555 1_555
C2 C1 1_555 1_555
S2 C2 1_555 1_555
O4 Ba1 1_555 1_555
O5 Ba2 1_555 1_555
O6 S2 1_555 1_555
C3 C2 1_555 1_555
H1 C3 1_555 1_555
C4 C3 1_555 1_555
H2 C4 1_555 1_555
C5 C4 1_555 1_555
H3 C5 1_555 1_555
C6 C1 1_555 1_555
H4 C6 1_555 1_555
C7 S3 1_555 1_555
S3 O7 1_555 1_555
O7 Ba1 1_555 1_555
O8 S3 1_555 1_555
O9 S3 1_555 1_555
C8 C7 1_555 1_555
S4 C8 1_555 1_555
O10 Ba1 1_555 1_555
O11 Ba1 1_555 1_555
O12 Ba2 1_555 1_555
C9 C8 1_555 1_555
H5 C9 1_555 1_555
C10 C9 1_555 1_555
H6 C10 1_555 1_555
C11 C10 1_555 1_555
H7 C11 1_555 1_555
C12 C7 1_555 1_555
H8 C12 1_555 1_555
O13 Ba1 1_555 1_555
H9 O13 1_555 1_555
H10 O13 1_555 1_555
O14 Ba1 1_555 1_555
H11 O14 1_555 1_555
H12 O14 1_555 1_555
O15 Ba2 1_555 1_555
H13 O15 1_555 1_555
H14 O15 1_555 1_555
O16 Ba2 1_555 1_555
H15 O16 1_555 1_555
H16 O16 1_555 1_555
O17 Ba2 1_555 1_555
H17 O17 1_555 1_555
H18 O17 1_555 1_555
O18 H19 1_555 1_555
H20 O18 1_555 1_555
Ba1B O3 1_555 1_555
Ba1B_2 O5 1_555 1_555
Ba2B O2 1_555 1_555
Ba2B_2 O6 1_555 1_555
O2B Ba2 1_555 1_555
O3B Ba1 1_555 1_555
O5B Ba1 1_555 1_555
O6B Ba1 1_555 1_555
O6B_2 Ba2 1_555 1_555
Ba2 O11 1_555 1_555
S1 O2 1_555 1_555
S2 O4 1_555 1_555
S2 O5 1_555 1_555
O6 Ba1B_2 1_555 1_555
C5 C6 1_555 1_555
S4 O10 1_555 1_555
S4 O11 1_555 1_555
S4 O12 1_555 1_555
C11 C12 1_555 1_555
Ba1B_2 O2B 1_555 1_555
Ba2B O5B 1_555 1_555

#END
