
#######################################################################
#
#                 Cambridge Crystallographic Data Centre
#                                CCDC 
#
#######################################################################
#
# If this CIF has been generated from an entry in the Cambridge 
# Structural Database, then it will include bibliographic, chemical, 
# crystal, experimental, refinement or atomic coordinate data resulting 
# from the CCDC's data processing and validation procedures.
#
#######################################################################

data_YURNEF
_symmetry_cell_setting           triclinic
_symmetry_space_group_name_H-M   'P -1'
_symmetry_Int_Tables_number      2
_space_group_name_Hall           '-P 1'
loop_
_symmetry_equiv_pos_site_id
_symmetry_equiv_pos_as_xyz
1 x,y,z
2 -x,-y,-z
_cell_length_a                   6.097(2)
_cell_length_b                   5.5476(18)
_cell_length_c                   7.806(3)
_cell_angle_alpha                89.353(5)
_cell_angle_beta                 94.387(5)
_cell_angle_gamma                97.646(5)
_cell_volume                     260.914
loop_
_atom_site_label
_atom_site_type_symbol
_atom_site_fract_x
_atom_site_fract_y
_atom_site_fract_z
U1 U 0.85247(6) 0.13426(6) 0.29676(4)
O1 O 0.9209(15) -0.1076(16) 0.1747(11)
O2 O 0.7712(14) 0.3702(16) 0.4190(10)
O3 O 0.7456(14) 0.3238(15) 0.0227(10)
O4 O 0.8545(13) 0.5813(16) -0.1844(10)
O5 O 0.8053(14) -0.1273(15) 0.5346(10)
O6 O 0.4713(14) -0.0266(16) 0.2454(11)
C1 C 0.884(2) 0.4727(19) -0.0468(13)
U1A U 1.14753(6) 0.86574(6) -0.29676(4)
U1A_2 U 1.14753(6) -0.13426(6) 0.70324(4)
O1A O 1.0791(15) 1.1076(16) -0.1747(11)
O2A O 1.2288(14) 0.6298(16) -0.4190(10)
O3A O 1.2544(14) 0.6762(15) -0.0227(10)
O4A O 1.1455(13) 0.4187(16) 0.1844(10)
O5A O 1.1947(14) 0.1273(15) 0.4654(10)
O5A_2 O 1.1947(14) 1.1273(15) -0.5346(10)
O5_2 O 0.8053(14) 0.8727(15) -0.4654(10)
O6A O 1.5287(14) 1.0266(16) -0.2454(11)
C1A C 1.116(2) 0.5273(19) 0.0468(13)
loop_
_geom_bond_atom_site_label_1
_geom_bond_atom_site_label_2
_geom_bond_site_symmetry_1
_geom_bond_site_symmetry_2
U1 O1 1_555 1_555
O2 U1 1_555 1_555
O3 U1 1_555 1_555
O4 C1 1_555 1_555
O5 U1 1_555 1_555
O6 U1 1_555 1_555
C1 O3 1_555 1_555
U1A O4 1_555 1_555
U1A_2 O5 1_555 1_555
O1A U1A 1_555 1_555
O2A U1A 1_555 1_555
O3A U1A 1_555 1_555
O4A U1 1_555 1_555
O5A U1 1_555 1_555
O5A_2 U1A 1_555 1_555
O5_2 U1A 1_555 1_555
O6A U1A 1_555 1_555
C1A C1 1_555 1_555
U1A_2 O5A 1_555 1_555
O3A C1A 1_555 1_555
O4A C1A 1_555 1_555

#END
