
#######################################################################
#
#                 Cambridge Crystallographic Data Centre
#                                CCDC 
#
#######################################################################
#
# If this CIF has been generated from an entry in the Cambridge 
# Structural Database, then it will include bibliographic, chemical, 
# crystal, experimental, refinement or atomic coordinate data resulting 
# from the CCDC's data processing and validation procedures.
#
#######################################################################

data_YUSJEC01
_symmetry_cell_setting           triclinic
_symmetry_space_group_name_H-M   'P -1'
_symmetry_Int_Tables_number      2
_space_group_name_Hall           '-P 1'
loop_
_symmetry_equiv_pos_site_id
_symmetry_equiv_pos_as_xyz
1 x,y,z
2 -x,-y,-z
_cell_length_a                   10.0741(18)
_cell_length_b                   10.3250(19)
_cell_length_c                   10.5271(17)
_cell_angle_alpha                66.229(9)
_cell_angle_beta                 75.083(11)
_cell_angle_gamma                76.771(11)
_cell_volume                     958.578
loop_
_atom_site_label
_atom_site_type_symbol
_atom_site_fract_x
_atom_site_fract_y
_atom_site_fract_z
Zn1 Zn 0.38897(9) 0.43274(11) -0.09140(10)
O1 O 0.1728(6) 0.4464(7) -0.0899(7)
O2 O 0.3180(5) 0.3316(7) -0.2168(7)
C1 C 0.1972(8) 0.3810(9) -0.1740(9)
C2 C 0.0764(7) 0.3663(9) -0.2238(9)
C3 C -0.0597(8) 0.3932(9) -0.1563(8)
H1 H -0.0781 0.4240 -0.0810
C4 C -0.1673(8) 0.3732(9) -0.2036(8)
C5 C -0.1417(9) 0.3306(11) -0.3185(9)
H2 H -0.2150 0.3175 -0.3486
C6 C -0.0053(8) 0.3076(11) -0.3885(10)
C7 C 0.1035(9) 0.3265(10) -0.3415(10)
H3 H 0.1943 0.3127 -0.3883
C8 C -0.3152(8) 0.3965(8) -0.1296(8)
O3 O 0.0336(7) 0.2720(10) -0.5058(8)
C9 C -0.0717(11) 0.2460(16) -0.5552(13)
H4 H -0.1124 0.1647 -0.4847
H5 H -0.0324 0.2272 -0.6404
H6 H -0.1418 0.3283 -0.5739
O4 O -0.3397(6) 0.4419(7) -0.0322(6)
O5 O -0.4077(5) 0.3664(7) -0.1704(6)
N1 N 0.3876(7) 0.2417(8) 0.0951(7)
C10 C 0.3038(9) 0.2379(10) 0.2149(9)
H7 H 0.2410 0.3193 0.2156
C11 C 0.3032(9) 0.1225(10) 0.3376(10)
H8 H 0.2418 0.1275 0.4188
C12 C 0.3934(8) -0.0029(9) 0.3432(9)
C13 C 0.4786(10) 0.0019(11) 0.2141(9)
H9 H 0.5390 -0.0793 0.2084
C14 C 0.4751(9) 0.1250(10) 0.0948(9)
H10 H 0.5361 0.1257 0.0116
C15 C 0.4008(8) -0.1288(9) 0.4733(8)
C16 C 0.3346(10) -0.1233(10) 0.6053(10)
H11 H 0.2877 -0.0370 0.6122
C17 C 0.3383(10) -0.2455(10) 0.7261(9)
H12 H 0.2930 -0.2382 0.8124
N2 N 0.4032(7) -0.3726(8) 0.7249(7)
C18 C 0.4713(10) -0.3777(10) 0.5993(9)
H13 H 0.5213 -0.4646 0.5968
C19 C 0.4716(10) -0.2609(11) 0.4722(10)
H14 H 0.5188 -0.2712 0.3877
Zn1_2 Zn -0.61103(9) 0.43274(11) -0.09140(10)
Zn1_3 Zn 0.38897(9) -0.56726(11) 0.90860(10)
Zn1A Zn -0.38897(9) 0.56726(11) 0.09140(10)
O4A O 0.3397(6) 0.5581(7) 0.0322(6)
O5_2 O 0.5923(5) 0.3664(7) -0.1704(6)
N2_2 N 0.4032(7) 0.6274(8) -0.2751(7)
loop_
_geom_bond_atom_site_label_1
_geom_bond_atom_site_label_2
_geom_bond_site_symmetry_1
_geom_bond_site_symmetry_2
Zn1 O1 1_555 1_555
O1 C1 1_555 1_555
O2 Zn1 1_555 1_555
C1 O2 1_555 1_555
C2 C1 1_555 1_555
C3 C2 1_555 1_555
H1 C3 1_555 1_555
C4 C3 1_555 1_555
C5 C4 1_555 1_555
H2 C5 1_555 1_555
C6 C5 1_555 1_555
C7 C2 1_555 1_555
H3 C7 1_555 1_555
C8 C4 1_555 1_555
O3 C6 1_555 1_555
C9 O3 1_555 1_555
H4 C9 1_555 1_555
H5 C9 1_555 1_555
H6 C9 1_555 1_555
O4 C8 1_555 1_555
O5 C8 1_555 1_555
N1 Zn1 1_555 1_555
C10 N1 1_555 1_555
H7 C10 1_555 1_555
C11 C10 1_555 1_555
H8 C11 1_555 1_555
C12 C11 1_555 1_555
C13 C12 1_555 1_555
H9 C13 1_555 1_555
C14 N1 1_555 1_555
H10 C14 1_555 1_555
C15 C12 1_555 1_555
C16 C15 1_555 1_555
H11 C16 1_555 1_555
C17 C16 1_555 1_555
H12 C17 1_555 1_555
N2 C17 1_555 1_555
C18 N2 1_555 1_555
H13 C18 1_555 1_555
C19 C15 1_555 1_555
H14 C19 1_555 1_555
Zn1_2 O5 1_555 1_555
Zn1_3 N2 1_555 1_555
Zn1A O4 1_555 1_555
O4A Zn1 1_555 1_555
O5_2 Zn1 1_555 1_555
N2_2 Zn1 1_555 1_555
C6 C7 1_555 1_555
C13 C14 1_555 1_555
C18 C19 1_555 1_555

#END
