
#######################################################################
#
#                 Cambridge Crystallographic Data Centre
#                                CCDC 
#
#######################################################################
#
# If this CIF has been generated from an entry in the Cambridge 
# Structural Database, then it will include bibliographic, chemical, 
# crystal, experimental, refinement or atomic coordinate data resulting 
# from the CCDC's data processing and validation procedures.
#
#######################################################################

data_YUSLUT
_symmetry_cell_setting           triclinic
_symmetry_space_group_name_H-M   'P -1'
_symmetry_Int_Tables_number      2
_space_group_name_Hall           '-P 1'
loop_
_symmetry_equiv_pos_site_id
_symmetry_equiv_pos_as_xyz
1 x,y,z
2 -x,-y,-z
_cell_length_a                   7.528(2)
_cell_length_b                   9.443(4)
_cell_length_c                   10.959(4)
_cell_angle_alpha                95.13(2)
_cell_angle_beta                 103.85(3)
_cell_angle_gamma                111.70(2)
_cell_volume                     688.983
loop_
_atom_site_label
_atom_site_type_symbol
_atom_site_fract_x
_atom_site_fract_y
_atom_site_fract_z
Cu1 Cu 0.3663(1) 0.3988(1) -0.1833(1)
Cu2 Cu 0.7539(1) 0.4425(1) 0.0038(1)
O1 O 0.6473(8) 0.5246(7) -0.1353(6)
C1 C 0.7501(13) 0.6561(10) -0.1830(10)
O2 O 0.4828(8) 0.2896(6) -0.0749(6)
C2 C 0.3868(13) 0.1458(10) -0.0403(9)
O3 O 0.2016(9) 0.6640(7) -0.1409(6)
N1 N 0.2804(9) 0.5338(8) -0.2942(7)
F1 F 0.3490(8) 0.4028(7) -0.4431(5)
C3 C 0.2199(11) 0.6437(10) -0.2528(8)
C4 C 0.1761(12) 0.7387(10) -0.3383(9)
C5 C 0.1962(13) 0.7194(11) -0.4603(9)
C6 C 0.2584(13) 0.6049(12) -0.5001(9)
C7 C 0.2944(13) 0.5187(11) -0.4130(10)
O4 O -0.0075(8) 0.3779(7) -0.0824(6)
N2 N 0.0855(10) 0.2406(8) -0.2192(7)
F2 F 0.1855(8) 0.1068(6) -0.3479(5)
C8 C -0.0531(11) 0.2591(9) -0.1667(8)
C9 C -0.2503(12) 0.1391(10) -0.2099(9)
C10 C -0.2910(13) 0.0083(10) -0.2941(10)
C11 C -0.1469(13) -0.0111(10) -0.3446(9)
C12 C 0.0348(13) 0.1104(10) -0.3026(9)
H1 H 0.7588(89) 0.6225(11) -0.2659(30)
H2 H 0.6786(55) 0.7222(41) -0.1903(62)
H3 H 0.8823(37) 0.7127(44) -0.1253(34)
H4 H 0.4741(40) 0.1362(35) 0.0352(37)
H5 H 0.2657(52) 0.1415(33) -0.0234(62)
H6 H 0.3554(89) 0.0621(10) -0.1093(26)
H7 H 0.1337(12) 0.8141(10) -0.3124(9)
H8 H 0.1685(13) 0.7824(11) -0.5159(9)
H9 H 0.2739(13) 0.5894(12) -0.5812(9)
H10 H -0.3513(12) 0.1502(10) -0.1804(9)
H11 H -0.4190(13) -0.0705(10) -0.3186(10)
H12 H -0.1728(13) -0.0998(10) -0.4023(9)
Cu2A Cu 0.2461(1) 0.5575(1) -0.0038(1)
Cu1A Cu 0.6337(1) 0.6012(1) 0.1833(1)
Cu2_2 Cu -0.2461(1) 0.4425(1) 0.0038(1)
O3A O 0.7984(9) 0.3360(7) 0.1409(6)
O4A O 1.0075(8) 0.6221(7) 0.0824(6)
O4_2 O 0.9925(8) 0.3779(7) -0.0824(6)
loop_
_geom_bond_atom_site_label_1
_geom_bond_atom_site_label_2
_geom_bond_site_symmetry_1
_geom_bond_site_symmetry_2
Cu1 Cu2 1_555 1_555
Cu2 O1 1_555 1_555
O1 Cu1 1_555 1_555
C1 O1 1_555 1_555
O2 Cu1 1_555 1_555
C2 O2 1_555 1_555
O3 C3 1_555 1_555
N1 Cu1 1_555 1_555
F1 C7 1_555 1_555
C3 N1 1_555 1_555
C4 C3 1_555 1_555
C5 C4 1_555 1_555
C6 C5 1_555 1_555
C7 N1 1_555 1_555
O4 C8 1_555 1_555
N2 Cu1 1_555 1_555
F2 C12 1_555 1_555
C8 N2 1_555 1_555
C9 C8 1_555 1_555
C10 C9 1_555 1_555
C11 C10 1_555 1_555
C12 N2 1_555 1_555
H1 C1 1_555 1_555
H2 C1 1_555 1_555
H3 C1 1_555 1_555
H4 C2 1_555 1_555
H5 C2 1_555 1_555
H6 C2 1_555 1_555
H7 C4 1_555 1_555
H8 C5 1_555 1_555
H9 C6 1_555 1_555
H10 C9 1_555 1_555
H11 C10 1_555 1_555
H12 C11 1_555 1_555
Cu2A Cu1 1_555 1_555
Cu1A Cu2 1_555 1_555
Cu2_2 O4 1_555 1_555
O3A Cu2 1_555 1_555
O4A Cu2 1_555 1_555
O4_2 Cu2 1_555 1_555
Cu2 O2 1_555 1_555
O3 Cu2A 1_555 1_555
C6 C7 1_555 1_555
O4 Cu2A 1_555 1_555
C11 C12 1_555 1_555
Cu2A Cu1A 1_555 1_555

#END
