
#######################################################################
#
#                 Cambridge Crystallographic Data Centre
#                                CCDC 
#
#######################################################################
#
# If this CIF has been generated from an entry in the Cambridge 
# Structural Database, then it will include bibliographic, chemical, 
# crystal, experimental, refinement or atomic coordinate data resulting 
# from the CCDC's data processing and validation procedures.
#
#######################################################################

data_YUSQAF
_symmetry_cell_setting           orthorhombic
_symmetry_space_group_name_H-M   'C m c 21'
_symmetry_Int_Tables_number      36
_space_group_name_Hall           'C 2n -2'
loop_
_symmetry_equiv_pos_site_id
_symmetry_equiv_pos_as_xyz
1 x,y,z
2 -x,-y,1/2+z
3 x,-y,1/2+z
4 -x,y,z
5 1/2+x,1/2+y,z
6 1/2-x,1/2-y,1/2+z
7 1/2+x,1/2-y,1/2+z
8 1/2-x,1/2+y,z
_cell_length_a                   37.990(8)
_cell_length_b                   10.022(2)
_cell_length_c                   8.3093(17)
_cell_angle_alpha                90
_cell_angle_beta                 90
_cell_angle_gamma                90
_cell_volume                     3163.65
loop_
_atom_site_label
_atom_site_type_symbol
_atom_site_fract_x
_atom_site_fract_y
_atom_site_fract_z
Ga1 Ga 0.37808(3) -0.16736(10) 0.70301(12)
Ga2 Ga 0.40678(3) -0.31343(11) 1.17572(12)
Ga3 Ga 0.30992(3) 0.04288(12) 0.74119(14)
P1 P 0.42532(7) -0.4051(3) 1.5385(3)
P2 P 0.42528(7) -0.0533(3) 0.9944(3)
P3 P 0.33359(8) -0.2719(3) 1.0265(3)
P4 P 0.29925(7) -0.8083(3) 1.0492(3)
O1 O 0.3517(2) -0.2764(7) 0.8657(9)
O2 O 0.33873(18) -0.8154(7) 1.0519(8)
O3 O 0.39642(19) -0.3359(7) 1.6316(8)
O4 O 0.4177(2) -0.1291(7) 0.8391(8)
O5 O 0.39885(17) 0.0572(6) 1.0263(8)
O6 O 0.42733(18) -0.1527(7) 1.1372(7)
O7 O 0.42834(19) -0.3563(7) 1.3641(8)
O8 O 0.41988(18) -0.5584(6) 1.5315(8)
O9 O 0.35905(17) -0.2960(6) 1.1707(9)
O10 O 0.31328(18) -0.1387(7) 1.0546(8)
O11 O 0.28562(19) -0.8576(7) 0.8835(8)
O12 O 0.28312(16) -0.8951(6) 1.1851(8)
O13 O 0.35474(18) -0.0071(7) 0.7874(8)
C1 C 0.4672(3) -0.3737(11) 1.6365(12)
H1 H 0.4688 -0.2773 1.6616
H2 H 0.4676 -0.4226 1.74
C2 C 0.50000 -0.4134(15) 1.5401(18)
H3 H 0.500 -0.5109 1.5206
H4 H 0.500 -0.3674 1.4346
C3 C 0.4672(3) 0.0238(10) 0.9863(13)
H5 H 0.4671 0.0866 0.8943
H6 H 0.47 0.0778 1.0852
C4 C 0.50000 -0.0655(15) 0.9698(18)
H7 H 0.500 -0.1347 1.0548
H8 H 0.500 -0.1104 0.8637
C5 C 0.3003(3) -0.3971(10) 1.0424(13)
H9 H 0.2888 -0.3885 1.1487
H10 H 0.2823 -0.3803 0.959
C6 C 0.3136(3) -0.5397(10) 1.0239(13)
H11 H 0.3344 -0.5536 1.0936
H12 H 0.3208 -0.5557 0.911
C7 C 0.2837(3) -0.6400(10) 1.0723(13)
H13 H 0.2767 -0.6244 1.1855
H14 H 0.2628 -0.6256 1.0031
Ga1C Ga 0.62192(3) -0.16736(10) 0.70301(12)
Ga1_2 Ga 0.37808(3) -0.16736(10) 1.70301(12)
Ga1A Ga 0.62192(3) -0.83264(10) 1.20301(12)
Ga1A_2 Ga 0.62192(3) 0.16736(10) 1.20301(12)
Ga1B Ga 0.37808(3) -0.83264(10) 1.20301(12)
Ga1B_2 Ga 0.37808(3) 0.16736(10) 1.20301(12)
Ga1C_2 Ga 0.62192(3) -0.16736(10) 1.70301(12)
Ga2C Ga 0.59322(3) -0.31343(11) 1.17572(12)
Ga2A Ga 0.59322(3) -0.68657(11) 1.67572(12)
Ga2B Ga 0.40678(3) -0.68657(11) 1.67572(12)
Ga3C Ga 0.69008(3) 0.04288(12) 0.74119(14)
Ga3_2 Ga 0.30992(3) -0.95712(12) 0.74119(14)
Ga3A Ga 0.69008(3) -1.04288(12) 1.24119(14)
Ga3A_2 Ga 0.69008(3) -0.04288(12) 1.24119(14)
Ga3B Ga 0.30992(3) -1.04288(12) 1.24119(14)
Ga3B_2 Ga 0.30992(3) -0.04288(12) 1.24119(14)
Ga3C_2 Ga 0.69008(3) -0.95712(12) 0.74119(14)
P1C P 0.57468(7) -0.4051(3) 1.5385(3)
P2C P 0.57472(7) -0.0533(3) 0.9944(3)
P3C P 0.66641(8) -0.2719(3) 1.0265(3)
P4C P 0.70075(7) -0.8083(3) 1.0492(3)
O1C O 0.6483(2) -0.2764(7) 0.8657(9)
O2C O 0.66127(18) -0.8154(7) 1.0519(8)
O2A O 0.66127(18) -0.1846(7) 0.5519(8)
O2B O 0.33873(18) -0.1846(7) 0.5519(8)
O3C O 0.60358(19) -0.3359(7) 1.6316(8)
O3_2 O 0.39642(19) -0.3359(7) 0.6316(8)
O3C_2 O 0.60358(19) -0.3359(7) 0.6316(8)
O4C O 0.5823(2) -0.1291(7) 0.8391(8)
O5C O 0.60115(17) 0.0572(6) 1.0263(8)
O5A O 0.60115(17) -0.0572(6) 0.5263(8)
O5B O 0.39885(17) -0.0572(6) 0.5263(8)
O6C O 0.57267(18) -0.1527(7) 1.1372(7)
O7C O 0.57166(19) -0.3563(7) 1.3641(8)
O8C O 0.58012(18) -0.5584(6) 1.5315(8)
O8A O 0.58012(18) -0.4416(6) 1.0315(8)
O8B O 0.41988(18) -0.4416(6) 1.0315(8)
O9C O 0.64095(17) -0.2960(6) 1.1707(9)
O10C O 0.68672(18) -0.1387(7) 1.0546(8)
O10A O 0.68672(18) 0.1387(7) 0.5546(8)
O10B O 0.31328(18) 0.1387(7) 0.5546(8)
O11C O 0.71438(19) -0.8576(7) 0.8835(8)
O11_2 O 0.28562(19) 0.1424(7) 0.8835(8)
O11C_2 O 0.71438(19) 0.1424(7) 0.8835(8)
O12C O 0.71688(16) -0.8951(6) 1.1851(8)
O12A O 0.71688(16) -0.1049(6) 0.6851(8)
O12B O 0.28312(16) -0.1049(6) 0.6851(8)
O13C O 0.64526(18) -0.0071(7) 0.7874(8)
C1C C 0.5328(3) -0.3737(11) 1.6365(12)
H1C H 0.5312 -0.2773 1.6616
H2C H 0.5324 -0.4226 1.74
C3C C 0.5328(3) 0.0238(10) 0.9863(13)
H5C H 0.5329 0.0866 0.8943
H6C H 0.53 0.0778 1.0852
C5C C 0.6997(3) -0.3971(10) 1.0424(13)
H9C H 0.7112 -0.3885 1.1487
H10C H 0.7177 -0.3803 0.959
C6C C 0.6864(3) -0.5397(10) 1.0239(13)
H11C H 0.6656 -0.5536 1.0936
H12C H 0.6792 -0.5557 0.911
C7C C 0.7163(3) -0.6400(10) 1.0723(13)
H13C H 0.7233 -0.6244 1.1855
H14C H 0.7372 -0.6256 1.0031
loop_
_geom_bond_atom_site_label_1
_geom_bond_atom_site_label_2
_geom_bond_site_symmetry_1
_geom_bond_site_symmetry_2
Ga1 O1 1_555 1_555
Ga2 O6 1_555 1_555
Ga3 O13 1_555 1_555
P1 O3 1_555 1_555
P2 O4 1_555 1_555
P3 O1 1_555 1_555
P4 O2 1_555 1_555
O2 Ga1B 1_555 1_555
O3 Ga1_2 1_555 1_555
O4 Ga1 1_555 1_555
O5 P2 1_555 1_555
O6 P2 1_555 1_555
O7 Ga2 1_555 1_555
O8 P1 1_555 1_555
O9 Ga2 1_555 1_555
O10 P3 1_555 1_555
O11 P4 1_555 1_555
O12 P4 1_555 1_555
O13 Ga1 1_555 1_555
C1 P1 1_555 1_555
H1 C1 1_555 1_555
H2 C1 1_555 1_555
C2 C1 1_555 1_555
H3 C2 1_555 1_555
H4 C2 1_555 1_555
C3 P2 1_555 1_555
H5 C3 1_555 1_555
H6 C3 1_555 1_555
C4 C3 1_555 1_555
H7 C4 1_555 1_555
H8 C4 1_555 1_555
C5 P3 1_555 1_555
H9 C5 1_555 1_555
H10 C5 1_555 1_555
C6 C5 1_555 1_555
H11 C6 1_555 1_555
H12 C6 1_555 1_555
C7 P4 1_555 1_555
H13 C7 1_555 1_555
H14 C7 1_555 1_555
Ga1C O1C 1_555 1_555
Ga1A O2C 1_555 1_555
Ga1A_2 O5C 1_555 1_555
Ga1B_2 O5 1_555 1_555
Ga1C_2 O3C 1_555 1_555
Ga2C O6C 1_555 1_555
Ga2A O8C 1_555 1_555
Ga2B O8 1_555 1_555
Ga3C O10A 1_555 1_555
Ga3_2 O11 1_555 1_555
Ga3A O12C 1_555 1_555
Ga3A_2 O10C 1_555 1_555
Ga3B O12 1_555 1_555
Ga3B_2 O10 1_555 1_555
Ga3C_2 O11C 1_555 1_555
P1C O3C 1_555 1_555
P2C O4C 1_555 1_555
P3C O1C 1_555 1_555
P4C O2C 1_555 1_555
O2A Ga1C 1_555 1_555
O2B Ga1 1_555 1_555
O3_2 Ga1 1_555 1_555
O3C_2 Ga1C 1_555 1_555
O4C Ga1C 1_555 1_555
O5C P2C 1_555 1_555
O5A Ga1C 1_555 1_555
O5B Ga1 1_555 1_555
O6C P2C 1_555 1_555
O7C Ga2C 1_555 1_555
O8C P1C 1_555 1_555
O8A Ga2C 1_555 1_555
O8B Ga2 1_555 1_555
O9C Ga2C 1_555 1_555
O10C P3C 1_555 1_555
O10B Ga3 1_555 1_555
O11C P4C 1_555 1_555
O11_2 Ga3 1_555 1_555
O11C_2 Ga3C 1_555 1_555
O12C P4C 1_555 1_555
O12A Ga3C 1_555 1_555
O12B Ga3 1_555 1_555
O13C Ga1C 1_555 1_555
C1C C2 1_555 1_555
H1C C1C 1_555 1_555
H2C C1C 1_555 1_555
C3C C4 1_555 1_555
H5C C3C 1_555 1_555
H6C C3C 1_555 1_555
C5C P3C 1_555 1_555
H9C C5C 1_555 1_555
H10C C5C 1_555 1_555
C6C C5C 1_555 1_555
H11C C6C 1_555 1_555
H12C C6C 1_555 1_555
C7C P4C 1_555 1_555
H13C C7C 1_555 1_555
H14C C7C 1_555 1_555
P1 O7 1_555 1_555
P3 O9 1_555 1_555
C6 C7 1_555 1_555
Ga3C O13C 1_555 1_555
P1C O7C 1_555 1_555
P1C C1C 1_555 1_555
P2C C3C 1_555 1_555
P3C O9C 1_555 1_555
C6C C7C 1_555 1_555

#END
