
#######################################################################
#
#                 Cambridge Crystallographic Data Centre
#                                CCDC 
#
#######################################################################
#
# If this CIF has been generated from an entry in the Cambridge 
# Structural Database, then it will include bibliographic, chemical, 
# crystal, experimental, refinement or atomic coordinate data resulting 
# from the CCDC's data processing and validation procedures.
#
#######################################################################

data_YUSQEJ
_symmetry_cell_setting           monoclinic
_symmetry_space_group_name_H-M   'P 21'
_symmetry_Int_Tables_number      4
_space_group_name_Hall           'P 2yb'
loop_
_symmetry_equiv_pos_site_id
_symmetry_equiv_pos_as_xyz
1 x,y,z
2 -x,1/2+y,-z
_cell_length_a                   9.6394(19)
_cell_length_b                   8.3158(16)
_cell_length_c                   22.717(5)
_cell_angle_alpha                90
_cell_angle_beta                 93.117(3)
_cell_angle_gamma                90
_cell_volume                     1818.29
loop_
_atom_site_label
_atom_site_type_symbol
_atom_site_fract_x
_atom_site_fract_y
_atom_site_fract_z
Ga1 Ga -0.32612(5) 0.16130(6) 0.29663(2)
Ga2 Ga -0.28315(5) 0.16112(6) 0.70168(2)
Ga3 Ga -0.12109(5) 0.62408(6) -0.23568(2)
Ga4 Ga -0.17934(5) -0.37504(6) 0.23399(2)
P1 P -0.08274(13) -0.06743(15) 0.31906(5)
P2 P -0.61413(13) 0.01124(15) 0.32284(5)
P3 P -0.57764(13) 0.01150(15) 0.67819(5)
P4 P -0.12205(13) 0.26337(15) -0.18056(6)
P5 P -0.19498(13) 0.26283(15) 0.18097(5)
P6 P -0.04583(13) -0.06663(15) 0.67999(5)
O1 O -0.6401(3) 0.0779(4) 0.73270(14)
O2 O -0.4174(3) 0.0121(4) 0.68747(14)
O3 O -0.2456(3) 0.1957(4) -0.22072(14)
O4 O 0.0149(3) 0.1933(4) -0.19540(15)
O5 O -0.4561(4) 0.0120(4) 0.31405(15)
O6 O -0.1651(3) 0.0879(4) 0.33018(14)
O7 O -0.2010(4) 0.4450(4) 0.17871(14)
O8 O -0.1744(4) -0.1827(4) 0.28335(15)
O9 O 0.0934(4) -0.0202(4) 0.70844(15)
O10 O -0.1339(3) 0.0850(4) 0.66656(14)
O11 O -0.1279(4) -0.1835(4) 0.71436(15)
O12 O -0.6527(4) -0.1624(4) 0.33817(15)
O13 O 0.0532(3) -0.0236(4) 0.29239(14)
O14 O -0.6232(4) -0.1623(4) 0.66301(14)
O15 O -0.3116(3) 0.1927(4) 0.21885(14)
O16 O -0.1272(4) 0.4453(4) -0.17842(15)
O17 O -0.6888(4) 0.0766(4) 0.26803(14)
O18 O -0.0549(3) 0.1935(4) 0.19975(14)
C1 C -0.0337(5) -0.1481(6) 0.3904(2)
H1 H -0.051 -0.2654 0.3893
H2 H 0.0676 -0.1326 0.3976
C2 C -0.1062(5) -0.0784(6) 0.4434(2)
H3 H -0.0982 0.0403 0.4436
H4 H -0.2061 -0.1069 0.4405
C3 C -0.0383(5) -0.1467(6) 0.4991(2)
H5 H 0.0628 -0.1256 0.4995
H6 H -0.0517 -0.2648 0.4991
C4 C -0.0956(5) -0.0767(6) 0.5559(2)
H7 H -0.0876 0.042 0.5559
H8 H -0.1948 -0.1055 0.5583
C5 C -0.6475(5) 0.1229(6) 0.38733(19)
H9 H -0.6175 0.2355 0.3818
H10 H -0.7489 0.1239 0.3923
C6 C -0.5733(5) 0.0561(6) 0.4445(2)
H11 H -0.5879 -0.0616 0.4462
H12 H -0.4722 0.0756 0.4432
C7 C -0.6273(5) 0.1210(6) 0.61258(19)
H13 H -0.7297 0.1175 0.6064
H14 H -0.5999 0.2349 0.6182
C8 C -0.5618(6) 0.0559(7) 0.5568(2)
H15 H -0.4607 0.0774 0.5597
H16 H -0.5751 -0.0621 0.5548
C9 C -0.6253(4) 0.1322(6) 0.5000(2)
H17 H -0.7277 0.1215 0.4995
H18 H -0.6029 0.2484 0.5001
C10 C -0.1639(6) 0.1859(6) -0.1102(2)
H19 H -0.2659 0.1704 -0.1112
H20 H -0.1213 0.0779 -0.1061
C11 C -0.1226(6) 0.2804(7) -0.0532(2)
H21 H -0.0201 0.2872 -0.048
H22 H -0.1601 0.3911 -0.0562
C12 C -0.1811(6) 0.1942(7) 0.0001(2)
H23 H -0.2803 0.1696 -0.0095
H24 H -0.1318 0.0905 0.0058
C13 C -0.2394(5) 0.1933(6) 0.1072(2)
H25 H -0.2133 0.0785 0.1046
H26 H -0.3415 0.2003 0.1001
C14 C -0.1701(6) 0.2862(7) 0.0580(2)
H27 H -0.2154 0.3924 0.0526
H28 H -0.071 0.3045 0.0698
C15 C -0.0102(5) -0.1472(6) 0.6089(2)
H29 H 0.0895 -0.1302 0.6025
H30 H -0.0263 -0.2648 0.6097
C16 C -0.3435(5) 0.8329(6) -0.1858(2)
H31 H -0.3703 0.8489 -0.2263
C17 C -0.4253(6) 0.8967(7) -0.1448(3)
H32 H -0.5057 0.9575 -0.1563
C18 C -0.3882(6) 0.8705(7) -0.0858(3)
H33 H -0.4448 0.9094 -0.056
C19 C -0.2684(6) 0.7874(7) -0.0712(2)
H34 H -0.2394 0.7725 -0.0309
C20 C -0.1908(6) 0.7262(6) -0.1143(2)
H35 H -0.1093 0.6666 -0.1034
C21 C -0.3016(6) -0.2802(6) 0.1128(2)
H36 H -0.2272 -0.3429 0.0994
C22 C -0.3999(6) -0.2218(8) 0.0724(2)
H37 H -0.3953 -0.2475 0.0318
C23 C -0.5070(6) -0.1242(7) 0.0913(3)
H38 H -0.5754 -0.0816 0.064
C24 C -0.5106(6) -0.0920(6) 0.1500(3)
H39 H -0.5807 -0.0244 0.1643
C25 C -0.4107(6) -0.1591(6) 0.1883(2)
H40 H -0.4159 -0.1385 0.2293
N1 N -0.2267(4) 0.7482(5) -0.17244(19)
N2 N -0.3077(4) -0.2510(5) 0.17117(18)
Ga1A Ga -0.67388(5) -0.33870(6) 0.70337(2)
Ga2_2 Ga -0.28315(5) 0.16112(6) -0.29832(2)
Ga2A Ga -0.71685(5) -0.33888(6) 0.29832(2)
Ga3_2 Ga -0.12109(5) -0.37592(6) 0.76432(2)
Ga3A Ga -0.87891(5) 0.12408(6) 0.23568(2)
Ga3A_2 Ga 0.12109(5) 0.12408(6) 0.23568(2)
Ga4_2 Ga -0.17934(5) 0.62496(6) 0.23399(2)
Ga4A Ga -0.82066(5) 0.12496(6) 0.76601(2)
Ga4A_2 Ga 0.17934(5) 0.12496(6) -0.23399(2)
Ga4A_3 Ga 0.17934(5) 0.12496(6) 0.76601(2)
O1A O -0.3599(3) -0.4221(4) 0.26730(14)
O3_2 O -0.2456(3) 0.1957(4) 0.77928(14)
O4A O -0.0149(3) -0.3067(4) 0.19540(15)
O7_2 O -0.2010(4) -0.5550(4) 0.17871(14)
O9A O -0.0934(4) -0.5202(4) 0.29156(15)
O11_2 O -0.1279(4) 0.8165(4) -0.28564(15)
O12A O -0.3473(4) 0.3376(4) 0.66183(15)
O13A O -0.0532(3) 0.4764(4) -0.29239(14)
O14A O -0.3768(4) 0.3377(4) 0.33699(14)
O17A O -0.3112(4) 0.5766(4) -0.26803(14)
O18A O 0.0549(3) 0.6935(4) -0.19975(14)
loop_
_geom_bond_atom_site_label_1
_geom_bond_atom_site_label_2
_geom_bond_site_symmetry_1
_geom_bond_site_symmetry_2
Ga1 O5 1_555 1_555
Ga2 O2 1_555 1_555
Ga3 O16 1_555 1_555
Ga4 O8 1_555 1_555
P1 O6 1_555 1_555
P2 O5 1_555 1_555
P3 O1 1_555 1_555
P4 O3 1_555 1_555
P5 O7 1_555 1_555
P6 O9 1_555 1_555
O1 Ga4A 1_555 1_555
O2 P3 1_555 1_555
O3 Ga2_2 1_555 1_555
O4 P4 1_555 1_555
O6 Ga1 1_555 1_555
O7 Ga4_2 1_555 1_555
O8 P1 1_555 1_555
O9 Ga4A_3 1_555 1_555
O10 Ga2 1_555 1_555
O11 P6 1_555 1_555
O12 P2 1_555 1_555
O13 P1 1_555 1_555
O14 P3 1_555 1_555
O15 Ga1 1_555 1_555
O16 P4 1_555 1_555
O17 P2 1_555 1_555
O18 P5 1_555 1_555
C1 P1 1_555 1_555
H1 C1 1_555 1_555
H2 C1 1_555 1_555
C2 C1 1_555 1_555
H3 C2 1_555 1_555
H4 C2 1_555 1_555
C3 C2 1_555 1_555
H5 C3 1_555 1_555
H6 C3 1_555 1_555
C4 C3 1_555 1_555
H7 C4 1_555 1_555
H8 C4 1_555 1_555
C5 P2 1_555 1_555
H9 C5 1_555 1_555
H10 C5 1_555 1_555
C6 C5 1_555 1_555
H11 C6 1_555 1_555
H12 C6 1_555 1_555
C7 P3 1_555 1_555
H13 C7 1_555 1_555
H14 C7 1_555 1_555
C8 C7 1_555 1_555
H15 C8 1_555 1_555
H16 C8 1_555 1_555
C9 C6 1_555 1_555
H17 C9 1_555 1_555
H18 C9 1_555 1_555
C10 P4 1_555 1_555
H19 C10 1_555 1_555
H20 C10 1_555 1_555
C11 C10 1_555 1_555
H21 C11 1_555 1_555
H22 C11 1_555 1_555
C12 C11 1_555 1_555
H23 C12 1_555 1_555
H24 C12 1_555 1_555
C13 P5 1_555 1_555
H25 C13 1_555 1_555
H26 C13 1_555 1_555
C14 C12 1_555 1_555
H27 C14 1_555 1_555
H28 C14 1_555 1_555
C15 P6 1_555 1_555
H29 C15 1_555 1_555
H30 C15 1_555 1_555
C16 H31 1_555 1_555
C17 C16 1_555 1_555
H32 C17 1_555 1_555
C18 C17 1_555 1_555
H33 C18 1_555 1_555
C19 C18 1_555 1_555
H34 C19 1_555 1_555
C20 C19 1_555 1_555
H35 C20 1_555 1_555
C21 H36 1_555 1_555
C22 C21 1_555 1_555
H37 C22 1_555 1_555
C23 C22 1_555 1_555
H38 C23 1_555 1_555
C24 C23 1_555 1_555
H39 C24 1_555 1_555
C25 C24 1_555 1_555
H40 C25 1_555 1_555
N1 Ga3 1_555 1_555
N2 Ga4 1_555 1_555
Ga1A O14 1_555 1_555
Ga2A O12 1_555 1_555
Ga3_2 O11 1_555 1_555
Ga3A O17 1_555 1_555
Ga3A_2 O13 1_555 1_555
Ga4A_2 O4 1_555 1_555
O1A Ga4 1_555 1_555
O3_2 Ga2 1_555 1_555
O4A Ga4 1_555 1_555
O7_2 Ga4 1_555 1_555
O9A Ga4 1_555 1_555
O11_2 Ga3 1_555 1_555
O12A Ga2 1_555 1_555
O13A Ga3 1_555 1_555
O14A Ga1 1_555 1_555
O17A Ga3 1_555 1_555
O18A Ga3 1_555 1_555
P5 O15 1_555 1_555
P6 O10 1_555 1_555
O18 Ga3A_2 1_555 1_555
C4 C15 1_555 1_555
C8 C9 1_555 1_555
C13 C14 1_555 1_555
C16 N1 1_555 1_555
C20 N1 1_555 1_555
C21 N2 1_555 1_555
C25 N2 1_555 1_555

#END
