
#######################################################################
#
#                 Cambridge Crystallographic Data Centre
#                                CCDC 
#
#######################################################################
#
# If this CIF has been generated from an entry in the Cambridge 
# Structural Database, then it will include bibliographic, chemical, 
# crystal, experimental, refinement or atomic coordinate data resulting 
# from the CCDC's data processing and validation procedures.
#
#######################################################################

data_YUSTOW01
_symmetry_cell_setting           orthorhombic
_symmetry_space_group_name_H-M   'P 21 21 21'
_symmetry_Int_Tables_number      19
_space_group_name_Hall           'P 2ac 2ab'
loop_
_symmetry_equiv_pos_site_id
_symmetry_equiv_pos_as_xyz
1 x,y,z
2 1/2-x,-y,1/2+z
3 1/2+x,1/2-y,-z
4 -x,1/2+y,1/2-z
_cell_length_a                   11.501(2)
_cell_length_b                   14.424(3)
_cell_length_c                   28.959(6)
_cell_angle_alpha                90
_cell_angle_beta                 90
_cell_angle_gamma                90
_cell_volume                     4804.02
loop_
_atom_site_label
_atom_site_type_symbol
_atom_site_fract_x
_atom_site_fract_y
_atom_site_fract_z
Ni1 Ni 0.47982(3) 0.72635(3) 0.131060(16)
Ni2 Ni 0.73102(3) 0.52619(3) -0.031077(17)
Ni3 Ni 0.20549(3) 0.74690(3) 0.372270(15)
Ni4 Ni 0.84679(4) 0.57096(3) 0.269936(17)
O1 O 1.08763(19) 0.2529(2) 0.07681(9)
O2 O 0.50069(19) 0.85202(16) 0.10238(8)
H1 H 0.4719 0.8979 0.0902
H2 H 0.5702 0.8643 0.1038
O3 O 0.65259(17) 0.43897(16) -0.07919(7)
H3 H 0.6479 0.3828 -0.0754
H4 H 0.5847 0.4560 -0.0778
O4 O 1.13902(19) 0.33084(19) 0.01601(9)
H5 H 1.1082 0.3694 -0.0008
O5 O 0.69574(17) 0.62733(16) -0.08074(8)
H6 H 0.7242 0.6794 -0.0797
H7 H 0.7103 0.6035 -0.1058
O6 O 1.05540(19) 0.42185(19) -0.04865(9)
O7 O 0.04522(16) 0.69408(15) 0.35663(8)
H8 H 0.0113 0.7072 0.3326
H9 H -0.0034 0.7153 0.3744
O8 O 0.88614(18) 0.49070(17) -0.06273(8)
O9 O 0.23184(18) 0.63220(16) 0.41281(8)
H10 H 0.2828 0.6205 0.4317
H11 H 0.1802 0.5963 0.4207
O10 O 0.37773(19) 0.77576(17) 0.18827(8)
O11 O 0.74298(19) 0.59453(16) 0.32738(8)
H12 H 0.6720 0.5903 0.3259
H13 H 0.7729 0.5711 0.3503
O12 O 0.2975(2) 0.90637(18) 0.16310(8)
O13 O 0.2832(2) 0.66633(16) 0.32194(9)
O14 O 0.97252(18) 0.52317(17) 0.31676(8)
H14 H 1.0311 0.4940 0.3097
H15 H 0.9841 0.5477 0.3419
O15 O 0.3630(2) 0.66616(18) 0.25278(9)
H16 H 0.3708 0.7058 0.2327
O16 O 0.6880(2) 0.91703(19) 0.14144(10)
O17 O 0.8048(2) 0.93738(18) 0.20018(10)
H17 H 0.8355 0.9056 0.2203
O18 O 0.9011(2) 0.84918(19) 0.26185(11)
O19 O 0.91320(18) 0.70141(17) 0.28115(9)
O20 O 0.32193(17) 0.71122(18) 0.09788(8)
O21 O 0.23158(19) 0.63790(19) 0.04088(9)
O22 O 0.28641(18) 0.54132(18) -0.02515(9)
H18 H 0.2607 0.5643 -0.0013
O23 O 0.43968(19) 0.4848(2) -0.05949(10)
N1 N 0.6333(2) 0.2972(2) 0.10539(10)
N2 N 0.8493(2) 0.31992(19) 0.06804(10)
N3 N 0.7821(2) 0.41265(19) 0.01032(10)
N4 N 0.8136(2) 0.61996(19) 0.01346(10)
N5 N 0.5888(2) 0.5765(2) 0.00609(10)
N6 N 0.5332(2) 0.6619(2) 0.06747(9)
N7 N 0.6264(2) 0.7331(2) 0.17601(10)
N8 N 0.4695(2) 0.5971(2) 0.16240(10)
N9 N 0.7264(2) 0.65346(19) 0.23028(10)
N10 N 0.0487(2) 1.0579(2) 0.28942(10)
N11 N 0.1927(2) 0.9355(2) 0.25059(10)
N12 N 0.1918(2) 0.83815(19) 0.31206(10)
C1 C 0.5277(3) 0.2718(3) 0.12102(13)
H19 H 0.5227 0.2403 0.1490
C2 C 0.4255(3) 0.2910(3) 0.09696(15)
H20 H 0.3539 0.2726 0.1087
C3 C 0.4323(3) 0.3372(3) 0.05598(15)
H21 H 0.3652 0.3505 0.0393
C4 C 0.5407(3) 0.3644(3) 0.03943(13)
H22 H 0.5475 0.3960 0.0115
C5 C 0.6376(3) 0.3436(2) 0.06535(13)
C6 C 0.7567(3) 0.3627(2) 0.04814(12)
C7 C 0.9409(3) 0.3410(2) 0.03887(13)
C8 C 0.8987(3) 0.3977(2) 0.00384(14)
C9 C 1.0607(3) 0.3058(3) 0.04592(15)
C10 C 0.9503(3) 0.4391(3) -0.03876(14)
C11 C -0.0309(3) 1.1180(3) 0.30516(15)
H23 H -0.0526 1.1672 0.2862
C12 C -0.0821(3) 1.1105(3) 0.34787(16)
H24 H -0.1353 1.1548 0.3578
C13 C -0.0538(3) 1.0375(3) 0.37538(16)
H25 H -0.0876 1.0310 0.4044
C14 C 0.0265(3) 0.9724(3) 0.35960(13)
H26 H 0.0466 0.9218 0.3778
C15 C 0.0764(3) 0.9844(3) 0.31603(13)
C16 C 0.1563(3) 0.9201(3) 0.29449(12)
C17 C 0.2542(3) 0.7991(2) 0.27666(13)
C18 C 0.2545(3) 0.8592(2) 0.23911(12)
C19 C 0.3022(3) 0.7056(3) 0.28475(14)
C20 C 0.3135(3) 0.8481(3) 0.19295(13)
C21 C 0.3838(3) 0.5339(3) 0.15816(14)
H27 H 0.3273 0.5433 0.1357
C22 C 0.3758(3) 0.4565(3) 0.18535(15)
H28 H 0.3150 0.4149 0.1812
C23 C 0.4587(3) 0.4404(3) 0.21915(15)
H29 H 0.4546 0.3884 0.2381
C24 C 0.5481(3) 0.5046(2) 0.22365(15)
H30 H 0.6051 0.4962 0.2460
C25 C 0.5522(3) 0.5800(3) 0.19522(12)
C26 C 0.6385(3) 0.6537(3) 0.19937(13)
C27 C 0.7106(3) 0.7910(3) 0.19343(13)
C28 C 0.7713(3) 0.7419(2) 0.22721(12)
C29 C 0.7327(3) 0.8862(3) 0.17657(16)
C30 C 0.8686(3) 0.7669(3) 0.25910(13)
C31 C 0.9265(3) 0.6469(3) 0.01311(14)
H31 H 0.9765 0.6209 -0.0086
C32 C 0.9693(3) 0.7105(3) 0.04326(14)
H32 H 1.0467 0.7287 0.0413
C33 C 0.8980(3) 0.7479(3) 0.07668(14)
H33 H 0.9265 0.7906 0.0979
C34 C 0.7832(3) 0.7200(3) 0.07775(12)
H34 H 0.7326 0.7440 0.0998
C35 C 0.7447(3) 0.6569(2) 0.04609(12)
C36 C 0.6223(3) 0.6293(2) 0.04191(13)
C37 C 0.4369(3) 0.6294(3) 0.04499(13)
C38 C 0.4697(3) 0.5770(2) 0.00744(12)
C39 C 0.3217(3) 0.6603(3) 0.06208(13)
C40 C 0.3990(3) 0.5302(3) -0.02765(15)
Ni3C Ni 0.79451(3) 0.24690(3) 0.127730(15)
Ni4C Ni 0.15321(4) 1.07096(3) 0.230064(17)
N1C N 0.3667(2) 0.7972(2) 0.39461(10)
N2C N 0.1507(2) 0.81992(19) 0.43196(10)
N10C N 0.9513(2) 0.5579(2) 0.21058(10)
N11C N 0.8073(2) 0.4355(2) 0.24941(10)
O24 O 0.5059(2) 0.5614(2) 0.33372(12)
H35 H 0.4363 0.5685 0.3386
H36 H 0.5259 0.5144 0.3475
loop_
_geom_bond_atom_site_label_1
_geom_bond_atom_site_label_2
_geom_bond_site_symmetry_1
_geom_bond_site_symmetry_2
Ni1 O2 1_555 1_555
Ni2 O3 1_555 1_555
Ni3 O7 1_555 1_555
Ni4 O11 1_555 1_555
O1 C9 1_555 1_555
O2 H1 1_555 1_555
H2 O2 1_555 1_555
O3 H3 1_555 1_555
H4 O3 1_555 1_555
O4 H5 1_555 1_555
O5 Ni2 1_555 1_555
H6 O5 1_555 1_555
H7 O5 1_555 1_555
O6 C10 1_555 1_555
O7 H8 1_555 1_555
H9 O7 1_555 1_555
O8 Ni2 1_555 1_555
O9 Ni3 1_555 1_555
H10 O9 1_555 1_555
H11 O9 1_555 1_555
O10 Ni1 1_555 1_555
O11 H12 1_555 1_555
H13 O11 1_555 1_555
O12 C20 1_555 1_555
O13 Ni3 1_555 1_555
O14 Ni4 1_555 1_555
H14 O14 1_555 1_555
H15 O14 1_555 1_555
O15 H16 1_555 1_555
O16 C29 1_555 1_555
O17 H17 1_555 1_555
O18 C30 1_555 1_555
O19 Ni4 1_555 1_555
O20 Ni1 1_555 1_555
O21 C39 1_555 1_555
O22 H18 1_555 1_555
O23 C40 1_555 1_555
N1 C1 1_555 1_555
N2 C6 1_555 1_555
N3 Ni2 1_555 1_555
N4 Ni2 1_555 1_555
N5 Ni2 1_555 1_555
N6 Ni1 1_555 1_555
N7 Ni1 1_555 1_555
N8 Ni1 1_555 1_555
N9 Ni4 1_555 1_555
N10 C11 1_555 1_555
N11 C16 1_555 1_555
N12 Ni3 1_555 1_555
C1 H19 1_555 1_555
C2 C1 1_555 1_555
H20 C2 1_555 1_555
C3 C2 1_555 1_555
H21 C3 1_555 1_555
C4 C3 1_555 1_555
H22 C4 1_555 1_555
C5 N1 1_555 1_555
C6 N3 1_555 1_555
C7 N2 1_555 1_555
C8 N3 1_555 1_555
C9 O4 1_555 1_555
C10 O8 1_555 1_555
C11 H23 1_555 1_555
C12 C11 1_555 1_555
H24 C12 1_555 1_555
C13 C12 1_555 1_555
H25 C13 1_555 1_555
C14 C13 1_555 1_555
H26 C14 1_555 1_555
C15 N10 1_555 1_555
C16 N12 1_555 1_555
C17 N12 1_555 1_555
C18 N11 1_555 1_555
C19 O13 1_555 1_555
C20 O10 1_555 1_555
C21 N8 1_555 1_555
H27 C21 1_555 1_555
C22 C21 1_555 1_555
H28 C22 1_555 1_555
C23 C22 1_555 1_555
H29 C23 1_555 1_555
C24 C23 1_555 1_555
H30 C24 1_555 1_555
C25 N8 1_555 1_555
C26 N7 1_555 1_555
C27 N7 1_555 1_555
C28 N9 1_555 1_555
C29 O17 1_555 1_555
C30 O19 1_555 1_555
C31 N4 1_555 1_555
H31 C31 1_555 1_555
C32 C31 1_555 1_555
H32 C32 1_555 1_555
C33 C32 1_555 1_555
H33 C33 1_555 1_555
C34 C33 1_555 1_555
H34 C34 1_555 1_555
C35 N4 1_555 1_555
C36 N5 1_555 1_555
C37 N6 1_555 1_555
C38 N5 1_555 1_555
C39 O20 1_555 1_555
C40 O22 1_555 1_555
O24 H35 1_555 1_555
H36 O24 1_555 1_555
Ni3C N1 1_555 1_555
Ni4C N10 1_555 1_555
N1C Ni3 1_555 1_555
N2C Ni3 1_555 1_555
N10C Ni4 1_555 1_555
N11C Ni4 1_555 1_555
O15 C19 1_555 1_555
N2 Ni3C 1_555 1_555
N6 C36 1_555 1_555
N9 C26 1_555 1_555
N11 Ni4C 1_555 1_555
C4 C5 1_555 1_555
C5 C6 1_555 1_555
C7 C8 1_555 1_555
C7 C9 1_555 1_555
C8 C10 1_555 1_555
C14 C15 1_555 1_555
C15 C16 1_555 1_555
C17 C18 1_555 1_555
C17 C19 1_555 1_555
C18 C20 1_555 1_555
C24 C25 1_555 1_555
C25 C26 1_555 1_555
C27 C28 1_555 1_555
C27 C29 1_555 1_555
C28 C30 1_555 1_555
C34 C35 1_555 1_555
C35 C36 1_555 1_555
C37 C38 1_555 1_555
C37 C39 1_555 1_555
C38 C40 1_555 1_555

#END
