
#######################################################################
#
#                 Cambridge Crystallographic Data Centre
#                                CCDC 
#
#######################################################################
#
# If this CIF has been generated from an entry in the Cambridge 
# Structural Database, then it will include bibliographic, chemical, 
# crystal, experimental, refinement or atomic coordinate data resulting 
# from the CCDC's data processing and validation procedures.
#
#######################################################################

data_YUVYOD
_symmetry_cell_setting           monoclinic
_symmetry_space_group_name_H-M   'I 2/a'
_symmetry_Int_Tables_number      15
_space_group_name_Hall           '-I 2ya'
loop_
_symmetry_equiv_pos_site_id
_symmetry_equiv_pos_as_xyz
1 x,y,z
2 1/2-x,y,-z
3 1/2+x,1/2+y,1/2+z
4 -x,1/2+y,1/2-z
5 -x,-y,-z
6 1/2+x,-y,z
7 1/2-x,1/2-y,1/2-z
8 x,1/2-y,1/2+z
_cell_length_a                   15.596(3)
_cell_length_b                   12.250(2)
_cell_length_c                   19.571(4)
_cell_angle_alpha                90
_cell_angle_beta                 92.60(2)
_cell_angle_gamma                90
_cell_volume                     3735.21
loop_
_atom_site_label
_atom_site_type_symbol
_atom_site_fract_x
_atom_site_fract_y
_atom_site_fract_z
K1 K 0.4236(1) 0.0242(2) 0.2222(1)
C1 C 0.4475(6) 0.3472(7) 0.3005(4)
C2 C 0.3792(6) 0.4281(8) 0.3103(5)
C3 C 0.3491(6) 0.4973(8) 0.2556(5)
C4 C 0.2867(6) 0.5789(8) 0.2659(5)
C5 C 0.2510(6) 0.5891(8) 0.3279(5)
C6 C 0.2775(6) 0.5232(8) 0.3810(5)
C7 C 0.3386(6) 0.4438(8) 0.3718(5)
C8 C 0.4483(5) 0.2932(7) 0.2342(5)
C9 C 0.3728(6) 0.2734(7) 0.1938(5)
C10 C 0.3733(6) 0.2280(7) 0.1295(5)
C11 C 0.4500(6) 0.1970(7) 0.1013(5)
C12 C 0.5243(6) 0.2111(8) 0.1408(5)
C13 C 0.5247(6) 0.2576(7) 0.2043(5)
C14 C 0.5076(6) 0.3236(8) 0.3553(5)
C15 C 0.5548(5) 0.2233(8) 0.3593(5)
C16 C 0.6131(6) 0.1996(8) 0.4125(5)
C17 C 0.6281(6) 0.2732(8) 0.4649(5)
C18 C 0.5869(6) 0.3720(8) 0.4629(5)
C19 C 0.5268(6) 0.3959(8) 0.4109(4)
O1 O 0.3840(5) 0.0304(7) 0.3510(4)
C20 C 0.3305(8) 0.1198(10) 0.3703(6)
C21 C 0.3551(8) 0.1443(11) 0.4435(6)
C22 C 0.3849(11) 0.0424(13) 0.4704(7)
C23 C 0.4057(11) -0.0251(12) 0.4099(8)
H1 H 0.3712 0.4878 0.2110
H2 H 0.2699 0.6277 0.2293
H3 H 0.2068 0.6422 0.3341
H4 H 0.2537 0.5327 0.4250
H5 H 0.3536 0.3964 0.4096
H6 H 0.3186 0.2925 0.2120
H7 H 0.3200 0.2177 0.1038
H8 H 0.4509 0.1670 0.0560
H9 H 0.5776 0.1872 0.1233
H10 H 0.5785 0.2669 0.2295
H11 H 0.5455 0.1704 0.3235
H12 H 0.6434 0.1314 0.4129
H13 H 0.6670 0.2553 0.5026
H14 H 0.6000 0.4252 0.4979
H15 H 0.4966 0.4641 0.4124
H16 H 0.3404 0.1824 0.3423
H17 H 0.2710 0.0995 0.3657
H18 H 0.3064 0.1697 0.4672
H19 H 0.3998 0.1982 0.4467
H20 H 0.4352 0.0528 0.4997
H21 H 0.3410 0.0079 0.4956
H22 H 0.3738 -0.0921 0.4106
H23 H 0.4660 -0.0411 0.4115
C1C C 0.5525(6) -0.1528(7) 0.1995(4)
K1C K 0.5764(1) 0.5242(2) 0.2778(1)
C14C C 0.4924(6) -0.1764(8) 0.1447(5)
C19C C 0.4732(6) -0.1041(8) 0.0891(4)
H15C H 0.5034 -0.0359 0.0876
C5F C 0.2490(6) -0.0891(8) 0.1721(5)
K1F K 0.0764(1) 0.4758(2) 0.2778(1)
H3F H 0.2932 -0.1422 0.1659
loop_
_geom_bond_atom_site_label_1
_geom_bond_atom_site_label_2
_geom_bond_site_symmetry_1
_geom_bond_site_symmetry_2
K1 C8 1_555 1_555
C1 C2 1_555 1_555
C2 C3 1_555 1_555
C3 C4 1_555 1_555
C4 C5 1_555 1_555
C5 C6 1_555 1_555
C6 C7 1_555 1_555
C7 C2 1_555 1_555
C8 C1 1_555 1_555
C9 K1 1_555 1_555
C10 K1 1_555 1_555
C11 K1 1_555 1_555
C12 K1 1_555 1_555
C13 K1 1_555 1_555
C14 C1 1_555 1_555
C15 C14 1_555 1_555
C16 C15 1_555 1_555
C17 C16 1_555 1_555
C18 C17 1_555 1_555
C19 C14 1_555 1_555
O1 K1 1_555 1_555
C20 O1 1_555 1_555
C21 C20 1_555 1_555
C22 C21 1_555 1_555
C23 O1 1_555 1_555
H1 C3 1_555 1_555
H2 C4 1_555 1_555
H3 C5 1_555 1_555
H4 C6 1_555 1_555
H5 C7 1_555 1_555
H6 C9 1_555 1_555
H7 C10 1_555 1_555
H8 C11 1_555 1_555
H9 C12 1_555 1_555
H10 C13 1_555 1_555
H11 C15 1_555 1_555
H12 C16 1_555 1_555
H13 C17 1_555 1_555
H14 C18 1_555 1_555
H15 C19 1_555 1_555
H16 C20 1_555 1_555
H17 C20 1_555 1_555
H18 C21 1_555 1_555
H19 C21 1_555 1_555
H20 C22 1_555 1_555
H21 C22 1_555 1_555
H22 C23 1_555 1_555
H23 C23 1_555 1_555
C1C K1 1_555 1_555
K1C C1 1_555 1_555
C14C K1 1_555 1_555
C19C K1 1_555 1_555
H15C C19C 1_555 1_555
C5F K1 1_555 1_555
K1F C5 1_555 1_555
H3F C5F 1_555 1_555
C8 C9 1_555 1_555
C8 C13 1_555 1_555
C9 C10 1_555 1_555
C10 C11 1_555 1_555
C11 C12 1_555 1_555
C12 C13 1_555 1_555
C14 K1C 1_555 1_555
C18 C19 1_555 1_555
C19 K1C 1_555 1_555
C22 C23 1_555 1_555
C1C C14C 1_555 1_555
C14C C19C 1_555 1_555

#END
