
#######################################################################
#
#                 Cambridge Crystallographic Data Centre
#                                CCDC 
#
#######################################################################
#
# If this CIF has been generated from an entry in the Cambridge 
# Structural Database, then it will include bibliographic, chemical, 
# crystal, experimental, refinement or atomic coordinate data resulting 
# from the CCDC's data processing and validation procedures.
#
#######################################################################

data_YUWKIL
_symmetry_cell_setting           monoclinic
_symmetry_space_group_name_H-M   'P 21/c'
_symmetry_Int_Tables_number      14
_space_group_name_Hall           '-P 2ybc'
loop_
_symmetry_equiv_pos_site_id
_symmetry_equiv_pos_as_xyz
1 x,y,z
2 -x,1/2+y,1/2-z
3 -x,-y,-z
4 x,1/2-y,1/2+z
_cell_length_a                   21.86(2)
_cell_length_b                   10.058(10)
_cell_length_c                   13.989(13)
_cell_angle_alpha                90
_cell_angle_beta                 91.481(11)
_cell_angle_gamma                90
_cell_volume                     3074.7
loop_
_atom_site_label
_atom_site_type_symbol
_atom_site_fract_x
_atom_site_fract_y
_atom_site_fract_z
Sm1 Sm 0.24029(2) -0.43840(5) 0.23176(3)
Sm2 Sm -0.25103(2) -0.75039(4) 0.52652(3)
O1 O 0.1749(3) -0.3334(7) 0.3643(5)
O2 O 0.1351(4) -0.4931(10) 0.2829(6)
C1 C 0.1314(6) -0.4136(11) 0.3503(8)
C2 C 0.0807(6) -0.4070(16) 0.4162(10)
H1 H 0.0781 -0.3166 0.4400
H2 H 0.0905 -0.4638 0.4705
C3 C 0.0189(7) -0.4461(13) 0.3767(9)
C4 C 0.0034(6) -0.5788(13) 0.3564(10)
H3 H 0.0332 -0.6441 0.3645
C5 C -0.0535(5) -0.6154(12) 0.3255(8)
H4 H -0.0621 -0.7047 0.3148
C6 C -0.0985(5) -0.5221(11) 0.3099(7)
C7 C -0.0850(6) -0.3900(12) 0.3275(9)
H5 H -0.1145 -0.3246 0.3172
C8 C -0.0257(6) -0.3561(13) 0.3615(10)
H6 H -0.0171 -0.2672 0.3741
C9 C -0.1615(5) -0.5623(11) 0.2800(7)
H7 H -0.1851 -0.4838 0.2629
H8 H -0.1598 -0.6188 0.2240
C10 C -0.1923(5) -0.6343(11) 0.3574(7)
O3 O -0.2171(5) -0.5720(7) 0.4234(6)
O4 O -0.1916(4) -0.7597(6) 0.3618(6)
O5 O 0.2851(4) -0.2346(7) 0.2932(6)
O6 O 0.3123(3) -0.0821(8) 0.3955(5)
C11 C 0.3181(5) -0.1380(10) 0.3148(7)
C12 C 0.3613(5) -0.0781(13) 0.2438(8)
H9 H 0.3417 -0.0026 0.2127
H10 H 0.3701 -0.1435 0.1951
C13 C 0.4211(5) -0.0330(11) 0.2921(7)
C14 C 0.4329(6) 0.0986(12) 0.3096(8)
H11 H 0.4041 0.1623 0.2915
C15 C 0.4873(6) 0.1379(11) 0.3539(8)
H12 H 0.4942 0.2277 0.3658
C16 C 0.5303(6) 0.0488(12) 0.3802(8)
C17 C 0.5171(6) -0.0830(11) 0.3640(9)
H13 H 0.5457 -0.1469 0.3829
C18 C 0.4635(6) -0.1228(12) 0.3211(9)
H14 H 0.4560 -0.2129 0.3118
C19 C 0.5899(5) 0.0941(14) 0.4287(9)
H15 H 0.5855 0.1869 0.4459
H16 H 0.5953 0.0443 0.4877
C20 C 0.6469(6) 0.0803(11) 0.3733(7)
O7 O 0.6960(3) 0.1331(7) 0.4029(5)
O8 O 0.6494(4) 0.0185(11) 0.2954(7)
O9 O 0.2823(4) -0.4729(7) 0.3921(5)
O10 O 0.3459(4) -0.3684(8) 0.4867(6)
C21 C 0.3361(6) -0.4624(10) 0.4351(8)
C22 C 0.3803(6) -0.5706(10) 0.4192(9)
H17 H 0.3834 -0.5864 0.3511
H18 H 0.3657 -0.6516 0.4485
C23 C 0.4441(4) -0.5363(10) 0.4618(7)
C24 C 0.4854(5) -0.4788(11) 0.4041(7)
H19 H 0.4760 -0.4632 0.3399
C25 C 0.4568(6) -0.5570(10) 0.5559(9)
H20 H 0.4275 -0.5948 0.5944
O11 O 0.1929(3) -0.5469(7) 0.0965(5)
O12 O 0.1855(4) -0.4318(7) -0.0364(6)
C26 C 0.1694(5) -0.5263(10) 0.0160(7)
C27 C 0.1208(5) -0.6162(10) -0.0225(8)
H21 H 0.1225 -0.7002 0.0115
H22 H 0.1276 -0.6337 -0.0895
C28 C 0.0578(6) -0.5541(10) -0.0117(8)
C29 C 0.0407(6) -0.5026(12) 0.0761(8)
H23 H 0.0684 -0.5036 0.1278
C30 C 0.0167(6) -0.5495(11) -0.0866(8)
H24 H 0.0278 -0.5823 -0.1458
O13 O 0.2491(5) -0.6742(9) 0.2532(7)
H25 H 0.2769 -0.7072 0.2896
H26 H 0.2515 -0.7185 0.2017
Sm1A Sm -0.24029(2) 0.06160(5) 0.26824(3)
Sm1A_2 Sm -0.24029(2) -0.93840(5) 0.26824(3)
Sm1A_3 Sm 0.75971(2) 0.06160(5) 0.26824(3)
Sm1B Sm 0.75971(2) -0.56160(5) 0.76824(3)
Sm1B_2 Sm -0.24029(2) -0.56160(5) -0.23176(3)
Sm1A_4 Sm 0.75971(2) -0.93840(5) 0.26824(3)
Sm2C Sm -0.25103(2) 0.25039(4) 0.02652(3)
Sm2B Sm 0.25103(2) -0.24961(4) 0.47348(3)
Sm2_2 Sm 0.74897(2) 0.24961(4) 0.52652(3)
Sm2A Sm 0.25103(2) -0.25039(4) -0.02652(3)
Sm2_3 Sm 0.74897(2) -0.75039(4) 0.52652(3)
Sm2C_2 Sm -0.25103(2) -0.74961(4) 0.02652(3)
Sm2C_3 Sm 0.74897(2) -0.74961(4) 0.02652(3)
O1A O -0.1749(3) 0.1666(7) 0.1357(5)
O1B O -0.1749(3) -0.6666(7) 0.6357(5)
O1A_2 O -0.1749(3) -0.8334(7) 0.1357(5)
O1C O 0.1749(3) -0.1666(7) -0.1357(5)
O2A O -0.1351(4) 0.0069(10) 0.2171(6)
O2A_2 O -0.1351(4) -0.9931(10) 0.2171(6)
C1A C -0.1314(6) 0.0864(11) 0.1497(8)
C2A C -0.0807(6) 0.0930(16) 0.0838(10)
H1A H -0.0781 0.1834 0.0600
H2A H -0.0905 0.0362 0.0295
C3A C -0.0189(7) 0.0539(13) 0.1233(9)
C4A C -0.0034(6) -0.0788(13) 0.1436(10)
H3A H -0.0332 -0.1441 0.1355
C5A C 0.0535(5) -0.1154(12) 0.1745(8)
H4A H 0.0621 -0.2047 0.1852
C6A C 0.0985(5) -0.0221(11) 0.1901(7)
C7A C 0.0850(6) 0.1100(12) 0.1725(9)
H5A H 0.1145 0.1754 0.1828
C8A C 0.0257(6) 0.1439(13) 0.1385(10)
H6A H 0.0171 0.2328 0.1259
C9A C 0.1615(5) -0.0623(11) 0.2200(7)
H7A H 0.1851 0.0162 0.2371
H8A H 0.1598 -0.1188 0.2760
C10A C 0.1923(5) -0.1343(11) 0.1426(7)
O3A O 0.2171(5) -0.0720(7) 0.0766(6)
O4A O 0.1916(4) -0.2597(6) 0.1382(6)
O5A O 0.7149(4) -0.7346(7) 0.2068(6)
O5B O -0.2851(4) -0.7654(7) 0.7068(6)
O5A_2 O -0.2851(4) -0.7346(7) 0.2068(6)
O5C O 0.2851(4) -0.2654(7) -0.2068(6)
O6A O 0.6877(3) -0.5821(8) 0.1045(5)
O6B O -0.3123(3) -0.9179(8) 0.6045(5)
O6C O 0.3123(3) -0.4179(8) -0.1045(5)
C11A C 0.6819(5) -0.6380(10) 0.1852(7)
C12A C 0.6387(5) -0.5781(13) 0.2562(8)
H9A H 0.6583 -0.5026 0.2873
H10A H 0.6299 -0.6435 0.3049
C13A C 0.5789(5) -0.5330(11) 0.2079(7)
C14A C 0.5671(6) -0.4014(12) 0.1904(8)
H11A H 0.5959 -0.3377 0.2085
C15A C 0.5127(6) -0.3621(11) 0.1461(8)
H12A H 0.5058 -0.2723 0.1342
C16A C 0.4697(6) -0.4512(12) 0.1198(8)
C17A C 0.4829(6) -0.5830(11) 0.1360(9)
H13A H 0.4543 -0.6469 0.1171
C18A C 0.5365(6) -0.6228(12) 0.1789(9)
H14A H 0.5440 -0.7129 0.1882
C19A C 0.4101(5) -0.4059(14) 0.0713(9)
H15A H 0.4145 -0.3131 0.0541
H16A H 0.4047 -0.4557 0.0123
C20A C 0.3531(6) -0.4197(11) 0.1267(7)
O7A O 0.3040(3) -0.3669(7) 0.0971(5)
O7_2 O -0.3040(3) -0.8669(7) 0.4029(5)
O8A O 0.3506(4) -0.4815(11) 0.2046(7)
O8_2 O -0.3506(4) -0.9815(11) 0.2954(7)
O9B O 0.7177(4) -0.5271(7) 0.6079(5)
O9B_2 O -0.2823(4) -0.5271(7) 0.6079(5)
O9A O -0.2823(4) -0.9729(7) 0.1079(5)
O9C O 0.2823(4) -0.0271(7) -0.1079(5)
O10B O 0.6541(4) -0.6316(8) 0.5133(6)
O10B_2 O -0.3459(4) -0.6316(8) 0.5133(6)
O10C O 0.3459(4) -0.1316(8) -0.0133(6)
C21B C 0.6639(6) -0.5376(10) 0.5649(8)
C22B C 0.6197(6) -0.4294(10) 0.5808(9)
H17B H 0.6166 -0.4136 0.6489
H18B H 0.6343 -0.3484 0.5515
C23B C 0.5559(4) -0.4637(10) 0.5382(7)
C24B C 0.5146(5) -0.5212(11) 0.5959(7)
H19B H 0.5240 -0.5368 0.6601
C25B C 0.5432(6) -0.4430(10) 0.4441(9)
H20B H 0.5725 -0.4052 0.4056
O11B O -0.1929(3) -0.4531(7) -0.0965(5)
O11A O -0.1929(3) -1.0469(7) 0.4035(5)
O12B O -0.1855(4) -0.5682(7) 0.0364(6)
O12A O -0.1855(4) -0.9318(7) 0.5364(6)
C26B C -0.1694(5) -0.4737(10) -0.0160(7)
C27B C -0.1208(5) -0.3838(10) 0.0225(8)
H21B H -0.1225 -0.2998 -0.0115
H22B H -0.1276 -0.3663 0.0895
C28B C -0.0578(6) -0.4459(10) 0.0117(8)
C29B C -0.0407(6) -0.4974(12) -0.0761(8)
H23B H -0.0684 -0.4964 -0.1278
C30B C -0.0167(6) -0.4505(11) 0.0866(8)
H24B H -0.0278 -0.4177 0.1458
O13A O -0.2491(5) -1.1742(9) 0.2468(7)
H25A H -0.2769 -1.2072 0.2104
H26A H -0.2515 -1.2185 0.2983
O14 O 0.2567(6) -0.8152(10) 0.0896(8)
H27 H 0.2442 -0.8950 0.0858
H28 H 0.2721 -0.7714 0.0442
O15 O 0.2767(6) -0.8168(10) 0.4103(8)
H29 H 0.3087 -0.8632 0.4025
H30 H 0.2534 -0.8811 0.4244
loop_
_geom_bond_atom_site_label_1
_geom_bond_atom_site_label_2
_geom_bond_site_symmetry_1
_geom_bond_site_symmetry_2
Sm1 O1 1_555 1_555
Sm2 O3 1_555 1_555
O1 C1 1_555 1_555
O2 Sm1 1_555 1_555
C1 O2 1_555 1_555
C2 C1 1_555 1_555
H1 C2 1_555 1_555
H2 C2 1_555 1_555
C3 C2 1_555 1_555
C4 C3 1_555 1_555
H3 C4 1_555 1_555
C5 C4 1_555 1_555
H4 C5 1_555 1_555
C6 C5 1_555 1_555
C7 C6 1_555 1_555
H5 C7 1_555 1_555
C8 C3 1_555 1_555
H6 C8 1_555 1_555
C9 C6 1_555 1_555
H7 C9 1_555 1_555
H8 C9 1_555 1_555
C10 C9 1_555 1_555
O3 C10 1_555 1_555
O4 Sm2 1_555 1_555
O5 Sm1 1_555 1_555
O6 C11 1_555 1_555
C11 O5 1_555 1_555
C12 C11 1_555 1_555
H9 C12 1_555 1_555
H10 C12 1_555 1_555
C13 C12 1_555 1_555
C14 C13 1_555 1_555
H11 C14 1_555 1_555
C15 C14 1_555 1_555
H12 C15 1_555 1_555
C16 C15 1_555 1_555
C17 C16 1_555 1_555
H13 C17 1_555 1_555
C18 C13 1_555 1_555
H14 C18 1_555 1_555
C19 C16 1_555 1_555
H15 C19 1_555 1_555
H16 C19 1_555 1_555
C20 C19 1_555 1_555
O7 C20 1_555 1_555
O8 C20 1_555 1_555
O9 Sm1 1_555 1_555
O10 C21 1_555 1_555
C21 O9 1_555 1_555
C22 C21 1_555 1_555
H17 C22 1_555 1_555
H18 C22 1_555 1_555
C23 C22 1_555 1_555
C24 C23 1_555 1_555
H19 C24 1_555 1_555
C25 C23 1_555 1_555
H20 C25 1_555 1_555
O11 Sm1 1_555 1_555
O12 C26 1_555 1_555
C26 O11 1_555 1_555
C27 C26 1_555 1_555
H21 C27 1_555 1_555
H22 C27 1_555 1_555
C28 C27 1_555 1_555
C29 C28 1_555 1_555
H23 C29 1_555 1_555
C30 C28 1_555 1_555
H24 C30 1_555 1_555
O13 Sm1 1_555 1_555
H25 O13 1_555 1_555
H26 O13 1_555 1_555
O14 H27 1_555 1_555
H28 O14 1_555 1_555
O15 H29 1_555 1_555
H30 O15 1_555 1_555
Sm1A O1A 1_555 1_555
Sm1A_2 O4 1_555 1_555
Sm1A_3 O7 1_555 1_555
Sm1B O9B 1_555 1_555
Sm1B_2 O11B 1_555 1_555
Sm1A_4 O5A 1_555 1_555
Sm2C O1A 1_555 1_555
Sm2B O1 1_555 1_555
Sm2_2 O7 1_555 1_555
Sm2A O12 1_555 1_555
Sm2_3 O9B 1_555 1_555
Sm2C_2 O1A_2 1_555 1_555
Sm2C_3 O5A 1_555 1_555
O1A C1A 1_555 1_555
O1B Sm2 1_555 1_555
O1A_2 Sm1A_2 1_555 1_555
O1C Sm2A 1_555 1_555
O2A Sm1A 1_555 1_555
O2A_2 Sm1A_2 1_555 1_555
C1A O2A 1_555 1_555
C2A C1A 1_555 1_555
H1A C2A 1_555 1_555
H2A C2A 1_555 1_555
C3A C2A 1_555 1_555
C4A C3A 1_555 1_555
H3A C4A 1_555 1_555
C5A C4A 1_555 1_555
H4A C5A 1_555 1_555
C6A C5A 1_555 1_555
C7A C6A 1_555 1_555
H5A C7A 1_555 1_555
C8A C3A 1_555 1_555
H6A C8A 1_555 1_555
C9A C6A 1_555 1_555
H7A C9A 1_555 1_555
H8A C9A 1_555 1_555
C10A C9A 1_555 1_555
O3A Sm2A 1_555 1_555
O4A Sm1 1_555 1_555
O5A C11A 1_555 1_555
O5B Sm2 1_555 1_555
O5A_2 Sm1A_2 1_555 1_555
O5C Sm2A 1_555 1_555
O6A Sm2C_3 1_555 1_555
O6B Sm2 1_555 1_555
O6C Sm2A 1_555 1_555
C11A O6A 1_555 1_555
C12A C11A 1_555 1_555
H9A C12A 1_555 1_555
H10A C12A 1_555 1_555
C13A C12A 1_555 1_555
C14A C13A 1_555 1_555
H11A C14A 1_555 1_555
C15A C14A 1_555 1_555
H12A C15A 1_555 1_555
C16A C15A 1_555 1_555
C17A C16A 1_555 1_555
H13A C17A 1_555 1_555
C18A C13A 1_555 1_555
H14A C18A 1_555 1_555
C19A C16A 1_555 1_555
H15A C19A 1_555 1_555
H16A C19A 1_555 1_555
C20A C19A 1_555 1_555
O7A Sm1 1_555 1_555
O7_2 Sm2 1_555 1_555
O8A Sm1 1_555 1_555
O8_2 Sm1A_2 1_555 1_555
O9B C21B 1_555 1_555
O9B_2 Sm2 1_555 1_555
O9A Sm1A_2 1_555 1_555
O9C Sm2A 1_555 1_555
O10B Sm2_3 1_555 1_555
O10B_2 Sm2 1_555 1_555
O10C Sm2A 1_555 1_555
C21B O10B 1_555 1_555
C22B C21B 1_555 1_555
H17B C22B 1_555 1_555
H18B C22B 1_555 1_555
C23B C22B 1_555 1_555
C24B C25 1_555 1_555
H19B C24B 1_555 1_555
C25B C24 1_555 1_555
H20B C25B 1_555 1_555
O11B C26B 1_555 1_555
O11A Sm1A_2 1_555 1_555
O12B Sm2C_2 1_555 1_555
O12A Sm2 1_555 1_555
C26B O12B 1_555 1_555
C27B C26B 1_555 1_555
H21B C27B 1_555 1_555
H22B C27B 1_555 1_555
C28B C27B 1_555 1_555
C29B C30 1_555 1_555
H23B C29B 1_555 1_555
C30B C29 1_555 1_555
H24B C30B 1_555 1_555
O13A Sm1A_2 1_555 1_555
H25A O13A 1_555 1_555
H26A O13A 1_555 1_555
C7 C8 1_555 1_555
C10 O4 1_555 1_555
O5 Sm2B 1_555 1_555
O6 Sm2B 1_555 1_555
C17 C18 1_555 1_555
O8 Sm1A_3 1_555 1_555
O9 Sm2B 1_555 1_555
O10 Sm2B 1_555 1_555
Sm1A_2 O7_2 1_555 1_555
Sm2A O4A 1_555 1_555
Sm2A O7A 1_555 1_555
Sm2C_2 O5A_2 1_555 1_555
Sm2C_2 O9A 1_555 1_555
C7A C8A 1_555 1_555
C10A O3A 1_555 1_555
C10A O4A 1_555 1_555
C17A C18A 1_555 1_555
C20A O7A 1_555 1_555
C20A O8A 1_555 1_555
C23B C24B 1_555 1_555
C23B C25B 1_555 1_555
C28B C29B 1_555 1_555
C28B C30B 1_555 1_555

#END
