
#######################################################################
#
#                 Cambridge Crystallographic Data Centre
#                                CCDC 
#
#######################################################################
#
# If this CIF has been generated from an entry in the Cambridge 
# Structural Database, then it will include bibliographic, chemical, 
# crystal, experimental, refinement or atomic coordinate data resulting 
# from the CCDC's data processing and validation procedures.
#
#######################################################################

data_YUWKUX
_symmetry_cell_setting           orthorhombic
_symmetry_space_group_name_H-M   'P b c n'
_symmetry_Int_Tables_number      60
_space_group_name_Hall           '-P 2n 2ab'
loop_
_symmetry_equiv_pos_site_id
_symmetry_equiv_pos_as_xyz
1 x,y,z
2 1/2-x,1/2-y,1/2+z
3 -x,y,1/2-z
4 1/2+x,1/2-y,-z
5 -x,-y,-z
6 1/2+x,1/2+y,1/2-z
7 x,-y,1/2+z
8 1/2-x,1/2+y,z
_cell_length_a                   17.951(2)
_cell_length_b                   22.147(3)
_cell_length_c                   8.2553(10)
_cell_angle_alpha                90
_cell_angle_beta                 90
_cell_angle_gamma                90
_cell_volume                     3281.98
loop_
_atom_site_label
_atom_site_type_symbol
_atom_site_fract_x
_atom_site_fract_y
_atom_site_fract_z
Co1 Co 0.0000 0.34910(4) 0.2500
Co2 Co 0.17452(4) 0.31914(3) 0.33871(8)
Co3 Co 0.29482(4) 0.30591(3) 0.02054(8)
O1 O 0.03660(19) 0.41614(16) 0.3990(5)
O2 O 0.15506(19) 0.39614(16) 0.4540(4)
O3 O 0.26601(19) 0.21715(15) 0.0502(4)
O4 O 0.19616(19) 0.22940(15) 0.2703(4)
O5 O 0.1921(2) 0.32816(19) -0.0554(4)
O6 O 0.10800(19) 0.34336(16) 0.1358(4)
O7 O 0.27527(19) 0.35213(15) 0.2443(4)
O8 O 0.3192(3) 0.40040(18) 0.0345(5)
O9 O -0.0958(2) 0.20849(19) -0.0547(5)
O10 O -0.06319(18) 0.28461(16) 0.1042(4)
C1 C 0.0973(3) 0.4288(2) 0.4629(6)
C2 C 0.1053(4) 0.4863(3) 0.5576(8)
H1 H 0.0588 0.5078 0.5567
H2 H 0.1433 0.5109 0.5094
H3 H 0.1188 0.4769 0.6673
C3 C 0.2222(3) 0.1968(2) 0.1575(6)
C4 C 0.1989(3) 0.1324(2) 0.1486(7)
H4 H 0.2228 0.1133 0.0580
H5 H 0.1458 0.1302 0.1354
H6 H 0.2130 0.1121 0.2467
C5 C 0.1290(3) 0.3431(2) -0.0113(6)
C6 C 0.0739(3) 0.3566(3) -0.1424(7)
H7 H 0.0983 0.3548 -0.2458
H8 H 0.0537 0.3963 -0.1263
H9 H 0.0344 0.3274 -0.1391
C7 C 0.2963(3) 0.4015(2) 0.1789(7)
C8 C 0.2971(4) 0.4596(3) 0.2733(7)
H10 H 0.3147 0.4917 0.2051
H11 H 0.3295 0.4555 0.3651
H12 H 0.2476 0.4687 0.3097
C9 C -0.0481(3) 0.2374(2) 0.0237(6)
C10 C 0.0284(3) 0.2126(3) 0.0222(9)
H13 H 0.0298 0.1771 -0.0445
H14 H 0.0430 0.2023 0.1306
H15 H 0.0621 0.2422 -0.0205
Co2B Co -0.17452(4) 0.31914(3) 0.16129(8)
Co2A Co 0.32548(4) 0.18086(3) -0.16129(8)
Co2A_2 Co 0.32548(4) 0.18086(3) 0.83871(8)
Co3B Co -0.29482(4) 0.30591(3) 0.47946(8)
Co3A Co 0.20518(4) 0.19409(3) 0.52054(8)
Co3C Co -0.20518(4) 0.19409(3) -0.02054(8)
Co3_2 Co 0.29482(4) 0.30591(3) 1.02054(8)
O1B O -0.03660(19) 0.41614(16) 0.1010(5)
O2B O -0.15506(19) 0.39614(16) 0.0460(4)
O3A O 0.23399(19) 0.28285(15) 0.5502(4)
O3C O -0.23399(19) 0.28285(15) -0.0502(4)
O3B O -0.26601(19) 0.21715(15) 0.4498(4)
O4A O 0.30384(19) 0.27060(15) 0.7703(4)
O4A_2 O 0.30384(19) 0.27060(15) -0.2297(4)
O4B O -0.19616(19) 0.22940(15) 0.2297(4)
O4C O -0.30384(19) 0.27060(15) 0.7297(4)
O5B O -0.1921(2) 0.32816(19) 0.5554(4)
O6B O -0.10800(19) 0.34336(16) 0.3642(4)
O7B O -0.27527(19) 0.35213(15) 0.2557(4)
O8B O -0.3192(3) 0.40040(18) 0.4655(5)
O9B O 0.0958(2) 0.20849(19) 0.5547(5)
O9C O 0.4042(2) 0.29151(19) 0.0547(5)
O9A O -0.4042(2) 0.29151(19) 0.4453(5)
O10B O 0.06319(18) 0.28461(16) 0.3958(4)
C1B C -0.0973(3) 0.4288(2) 0.0371(6)
C2B C -0.1053(4) 0.4863(3) -0.0576(8)
H1B H -0.0588 0.5078 -0.0567
H2B H -0.1433 0.5109 -0.0094
H3B H -0.1188 0.4769 -0.1673
C3A C 0.2778(3) 0.3032(2) 0.6575(6)
C4A C 0.3011(3) 0.3676(2) 0.6486(7)
H4A H 0.2772 0.3867 0.5580
H5A H 0.3542 0.3698 0.6354
H6A H 0.2870 0.3879 0.7467
C5B C -0.1290(3) 0.3431(2) 0.5113(6)
C6B C -0.0739(3) 0.3566(3) 0.6424(7)
H7B H -0.0983 0.3548 0.7458
H8B H -0.0537 0.3963 0.6263
H9B H -0.0344 0.3274 0.6391
C7B C -0.2963(3) 0.4015(2) 0.3211(7)
C8B C -0.2971(4) 0.4596(3) 0.2267(7)
H10B H -0.3147 0.4917 0.2949
H11B H -0.3295 0.4555 0.1349
H12B H -0.2476 0.4687 0.1903
C9B C 0.0481(3) 0.2374(2) 0.4763(6)
C10B C -0.0284(3) 0.2126(3) 0.4778(9)
H13B H -0.0298 0.1771 0.5445
H14B H -0.0430 0.2023 0.3694
H15B H -0.0621 0.2422 0.5205
loop_
_geom_bond_atom_site_label_1
_geom_bond_atom_site_label_2
_geom_bond_site_symmetry_1
_geom_bond_site_symmetry_2
Co1 O1 1_555 1_555
Co2 O2 1_555 1_555
Co3 O3 1_555 1_555
O1 C1 1_555 1_555
O2 C1 1_555 1_555
O3 C3 1_555 1_555
O4 Co2 1_555 1_555
O5 Co3 1_555 1_555
O6 Co1 1_555 1_555
O7 Co2 1_555 1_555
O8 Co3 1_555 1_555
O9 C9 1_555 1_555
O10 Co1 1_555 1_555
C1 C2 1_555 1_555
C2 H1 1_555 1_555
H2 C2 1_555 1_555
H3 C2 1_555 1_555
C3 O4 1_555 1_555
C4 C3 1_555 1_555
H4 C4 1_555 1_555
H5 C4 1_555 1_555
H6 C4 1_555 1_555
C5 O5 1_555 1_555
C6 C5 1_555 1_555
H7 C6 1_555 1_555
H8 C6 1_555 1_555
H9 C6 1_555 1_555
C7 O7 1_555 1_555
C8 C7 1_555 1_555
H10 C8 1_555 1_555
H11 C8 1_555 1_555
H12 C8 1_555 1_555
C9 O10 1_555 1_555
C10 C9 1_555 1_555
H13 C10 1_555 1_555
H14 C10 1_555 1_555
H15 C10 1_555 1_555
Co2B O10 1_555 1_555
Co2A O3 1_555 1_555
Co2A_2 O4A 1_555 1_555
Co3B O3B 1_555 1_555
Co3A O4 1_555 1_555
Co3C O9 1_555 1_555
Co3_2 O4A 1_555 1_555
O1B Co1 1_555 1_555
O2B Co2B 1_555 1_555
O3A Co2 1_555 1_555
O3C Co2B 1_555 1_555
O4A C3A 1_555 1_555
O4A_2 Co3 1_555 1_555
O4B Co2B 1_555 1_555
O4C Co3B 1_555 1_555
O5B Co3B 1_555 1_555
O6B Co1 1_555 1_555
O7B Co2B 1_555 1_555
O8B Co3B 1_555 1_555
O9B Co3A 1_555 1_555
O9C Co3 1_555 1_555
O9A Co3B 1_555 1_555
O10B Co1 1_555 1_555
C1B O1B 1_555 1_555
C2B C1B 1_555 1_555
H1B C2B 1_555 1_555
H2B C2B 1_555 1_555
H3B C2B 1_555 1_555
C3A O3A 1_555 1_555
C4A C3A 1_555 1_555
H4A C4A 1_555 1_555
H5A C4A 1_555 1_555
H6A C4A 1_555 1_555
C5B O5B 1_555 1_555
C6B C5B 1_555 1_555
H7B C6B 1_555 1_555
H8B C6B 1_555 1_555
H9B C6B 1_555 1_555
C7B O7B 1_555 1_555
C8B C7B 1_555 1_555
H10B C8B 1_555 1_555
H11B C8B 1_555 1_555
H12B C8B 1_555 1_555
C9B O9B 1_555 1_555
C10B C9B 1_555 1_555
H13B C10B 1_555 1_555
H14B C10B 1_555 1_555
H15B C10B 1_555 1_555
Co2 O6 1_555 1_555
Co2 O10B 1_555 1_555
Co3 O7 1_555 1_555
O6 C5 1_555 1_555
O8 C7 1_555 1_555
Co2B O6B 1_555 1_555
Co2A O4A_2 1_555 1_555
Co3B O7B 1_555 1_555
Co3A O3A 1_555 1_555
Co3C O3C 1_555 1_555
Co3C O4B 1_555 1_555
O2B C1B 1_555 1_555
O6B C5B 1_555 1_555
O8B C7B 1_555 1_555
O10B C9B 1_555 1_555

#END
