
#######################################################################
#
#                 Cambridge Crystallographic Data Centre
#                                CCDC 
#
#######################################################################
#
# If this CIF has been generated from an entry in the Cambridge 
# Structural Database, then it will include bibliographic, chemical, 
# crystal, experimental, refinement or atomic coordinate data resulting 
# from the CCDC's data processing and validation procedures.
#
#######################################################################

data_YUXTUH
_symmetry_cell_setting           orthorhombic
_symmetry_space_group_name_H-M   'P n a 21'
_symmetry_Int_Tables_number      33
_space_group_name_Hall           'P 2c -2n'
loop_
_symmetry_equiv_pos_site_id
_symmetry_equiv_pos_as_xyz
1 x,y,z
2 -x,-y,1/2+z
3 1/2+x,1/2-y,z
4 1/2-x,1/2+y,1/2+z
_cell_length_a                   11.7547(9)
_cell_length_b                   17.2068(14)
_cell_length_c                   4.4421(4)
_cell_angle_alpha                90
_cell_angle_beta                 90
_cell_angle_gamma                90
_cell_volume                     898.463
loop_
_atom_site_label
_atom_site_type_symbol
_atom_site_fract_x
_atom_site_fract_y
_atom_site_fract_z
I1 I 0.57722(4) -0.11410(3) 0.6168(3)
Ag1 Ag 0.54778(4) 0.05319(3) 0.6242(4)
N1 N 0.7308(7) 0.0876(4) 0.4739(16)
C1 C 0.7833(7) 0.1547(5) 0.555(2)
C2 C 0.8909(8) 0.1733(6) 0.450(2)
H1 H 0.9255 0.2207 0.5097
C3 C 0.9488(8) 0.1231(5) 0.257(2)
C4 C 0.8937(7) 0.0542(5) 0.173(3)
H2 H 0.9304 0.0183 0.0434
C5 C 0.7865(7) 0.0390(5) 0.280(2)
H3 H 0.7495 -0.0073 0.2173
C6 C 1.0666(8) 0.1418(7) 0.151(5)
H4 H 1.0686 0.1951 0.0732
H5 H 1.0884 0.1056 -0.0094
H6 H 1.1200 0.1370 0.3193
C7 C 0.7177(9) 0.2081(6) 0.745(3)
H7 H 0.6471 0.2224 0.6413
H8 H 0.7627 0.2550 0.7834
H9 H 0.6995 0.1826 0.9360
I1A I 0.42278(4) 0.11410(3) 1.1168(3)
I1A_2 I 0.42278(4) 0.11410(3) 0.1168(3)
Ag1A Ag 0.45222(4) -0.05319(3) 0.1242(4)
Ag1A_2 Ag 0.45222(4) -0.05319(3) 1.1242(4)
loop_
_geom_bond_atom_site_label_1
_geom_bond_atom_site_label_2
_geom_bond_site_symmetry_1
_geom_bond_site_symmetry_2
I1 Ag1 1_555 1_555
Ag1 N1 1_555 1_555
N1 C1 1_555 1_555
C1 C2 1_555 1_555
C2 H1 1_555 1_555
C3 C2 1_555 1_555
C4 C3 1_555 1_555
H2 C4 1_555 1_555
C5 N1 1_555 1_555
H3 C5 1_555 1_555
C6 C3 1_555 1_555
H4 C6 1_555 1_555
H5 C6 1_555 1_555
H6 C6 1_555 1_555
C7 C1 1_555 1_555
H7 C7 1_555 1_555
H8 C7 1_555 1_555
H9 C7 1_555 1_555
I1A Ag1 1_555 1_555
I1A_2 Ag1 1_555 1_555
Ag1A I1 1_555 1_555
Ag1A_2 I1 1_555 1_555
C4 C5 1_555 1_555
I1A Ag1A_2 1_555 1_555
I1A_2 Ag1A 1_555 1_555

#END
