
#######################################################################
#
#                 Cambridge Crystallographic Data Centre
#                                CCDC 
#
#######################################################################
#
# If this CIF has been generated from an entry in the Cambridge 
# Structural Database, then it will include bibliographic, chemical, 
# crystal, experimental, refinement or atomic coordinate data resulting 
# from the CCDC's data processing and validation procedures.
#
#######################################################################

data_YUXWIY
_symmetry_cell_setting           monoclinic
_symmetry_space_group_name_H-M   'P 2/c'
_symmetry_Int_Tables_number      13
_space_group_name_Hall           '-P 2yc'
loop_
_symmetry_equiv_pos_site_id
_symmetry_equiv_pos_as_xyz
1 x,y,z
2 -x,y,1/2-z
3 -x,-y,-z
4 x,-y,1/2+z
_cell_length_a                   16.3585(18)
_cell_length_b                   6.5300(8)
_cell_length_c                   32.288(4)
_cell_angle_alpha                90
_cell_angle_beta                 91.702(4)
_cell_angle_gamma                90
_cell_volume                     3447.51
loop_
_atom_site_label
_atom_site_type_symbol
_atom_site_fract_x
_atom_site_fract_y
_atom_site_fract_z
Ag1 Ag 0.5000 0.91589(12) 0.2500
Br1 Br 0.43988(4) 0.66788(10) 0.308582(19)
Ag2 Ag 0.5000 0.42196(12) 0.2500
Br2 Br 0.37227(4) 1.17004(10) 0.232268(18)
Ag3 Ag 0.33256(3) 0.29105(9) 0.317520(15)
N1 N 0.4426(3) 0.1613(9) 0.34956(16)
H1 H 0.481(3) 0.256(7) 0.3452(19)
H2 H 0.455(4) 0.053(7) 0.3338(18)
C1 C 0.4465(4) 0.1325(10) 0.39468(19)
H3 H 0.5035 0.0918 0.4032
C2 C 0.4257(4) 0.3298(11) 0.41663(19)
H4 H 0.3707 0.3769 0.4072
H5 H 0.4657 0.4370 0.4095
C3 C 0.4272(5) 0.2975(13) 0.4637(2)
H6 H 0.4114 0.4263 0.4775
H7 H 0.4834 0.2617 0.4734
C4 C 0.3682(5) 0.1260(13) 0.4755(2)
H8 H 0.3717 0.1035 0.5058
H9 H 0.3114 0.1661 0.4678
C5 C 0.3901(4) -0.0708(12) 0.4531(2)
H10 H 0.4453 -0.1164 0.4625
H11 H 0.3506 -0.1795 0.4601
C6 C 0.3885(4) -0.0388(10) 0.40652(19)
H12 H 0.3323 -0.0043 0.3968
H13 H 0.4048 -0.1673 0.3927
N2 N 0.2080(4) 0.4151(9) 0.30984(16)
H14 H 0.212(4) 0.515(7) 0.2912(15)
H15 H 0.179(4) 0.313(7) 0.2981(17)
C7 C 0.1671(4) 0.4799(10) 0.34797(19)
H16 H 0.1112 0.5309 0.3401
C8 C 0.1588(4) 0.2983(11) 0.3773(2)
H17 H 0.1251 0.1909 0.3635
H18 H 0.2136 0.2399 0.3836
C9 C 0.1196(4) 0.3606(11) 0.4175(2)
H19 H 0.1201 0.2422 0.4366
H20 H 0.0619 0.3991 0.4116
C10 C 0.1645(4) 0.5415(11) 0.4384(2)
H21 H 0.1339 0.5865 0.4628
H22 H 0.2195 0.4964 0.4483
C11 C 0.1731(4) 0.7197(11) 0.4088(2)
H23 H 0.2056 0.8295 0.4226
H24 H 0.1182 0.7758 0.4016
C12 C 0.2148(4) 0.6535(10) 0.36918(18)
H25 H 0.2180 0.7715 0.3501
H26 H 0.2712 0.6073 0.3761
Br1A Br 0.56012(4) 0.66788(10) 0.191418(19)
Ag2_2 Ag 0.5000 1.42196(12) 0.2500
Br2A Br 0.62773(4) 1.17004(10) 0.267732(18)
Br2_2 Br 0.37227(4) 0.17004(10) 0.232268(18)
Br2A_2 Br 0.62773(4) 0.17004(10) 0.267732(18)
Ag3A Ag 0.66744(3) 0.29105(9) 0.182480(15)
Ag3_2 Ag 0.33256(3) 1.29105(9) 0.317520(15)
Ag3A_2 Ag 0.66744(3) 1.29105(9) 0.182480(15)
N1A N 0.5574(3) 0.1613(9) 0.15044(16)
H1A H 0.519(3) 0.256(7) 0.1548(19)
H2A H 0.545(4) 0.053(7) 0.1662(18)
C1A C 0.5535(4) 0.1325(10) 0.10532(19)
H3A H 0.4965 0.0918 0.0968
C2A C 0.5743(4) 0.3298(11) 0.08337(19)
H4A H 0.6293 0.3769 0.0928
H5A H 0.5343 0.4370 0.0905
C3A C 0.5728(5) 0.2975(13) 0.0363(2)
H6A H 0.5886 0.4263 0.0225
H7A H 0.5166 0.2617 0.0266
C4A C 0.6318(5) 0.1260(13) 0.0245(2)
H8A H 0.6283 0.1035 -0.0058
H9A H 0.6886 0.1661 0.0322
C5A C 0.6099(4) -0.0708(12) 0.0469(2)
H10A H 0.5547 -0.1164 0.0375
H11A H 0.6494 -0.1795 0.0399
C6A C 0.6115(4) -0.0388(10) 0.09348(19)
H12A H 0.6677 -0.0043 0.1032
H13A H 0.5952 -0.1673 0.1073
N2A N 0.7920(4) 0.4151(9) 0.19016(16)
H14A H 0.788(4) 0.515(7) 0.2088(15)
H15A H 0.821(4) 0.313(7) 0.2019(17)
C7A C 0.8329(4) 0.4799(10) 0.15203(19)
H16A H 0.8888 0.5309 0.1599
C8A C 0.8412(4) 0.2983(11) 0.1227(2)
H17A H 0.8749 0.1909 0.1365
H18A H 0.7864 0.2399 0.1164
C9A C 0.8804(4) 0.3606(11) 0.0825(2)
H19A H 0.8799 0.2422 0.0634
H20A H 0.9381 0.3991 0.0884
C10A C 0.8355(4) 0.5415(11) 0.0616(2)
H21A H 0.8661 0.5865 0.0372
H22A H 0.7805 0.4964 0.0517
C11A C 0.8269(4) 0.7197(11) 0.0912(2)
H23A H 0.7944 0.8295 0.0774
H24A H 0.8818 0.7758 0.0984
C12A C 0.7852(4) 0.6535(10) 0.13082(18)
H25A H 0.7820 0.7715 0.1499
H26A H 0.7288 0.6073 0.1239
Br3 Br 1.12625(4) -0.07391(10) 0.274162(18)
Ag4 Ag 1.0000 0.17130(12) 0.2500
Br4 Br 0.94354(4) 0.42624(10) 0.308157(19)
Ag5 Ag 1.0000 -0.31860(12) 0.2500
Ag6 Ag 1.15370(3) -0.18260(9) 0.184830(15)
N3 N 1.2765(3) -0.3063(10) 0.19963(16)
H27 H 1.311(3) -0.215(8) 0.2110(17)
H28 H 1.274(4) -0.413(7) 0.2169(16)
C13 C 1.3239(4) -0.3755(11) 0.16333(19)
H29 H 1.3785 -0.4258 0.1736
C14 C 1.2802(4) -0.5490(10) 0.14101(19)
H30 H 1.2254 -0.5024 0.1311
H31 H 1.2727 -0.6643 0.1604
C15 C 1.3289(4) -0.6218(11) 0.1043(2)
H32 H 1.3823 -0.6768 0.1143
H33 H 1.2988 -0.7330 0.0897
C16 C 1.3426(4) -0.4456(11) 0.0747(2)
H34 H 1.2893 -0.4008 0.0626
H35 H 1.3767 -0.4933 0.0518
C17 C 1.3842(4) -0.2654(11) 0.0962(2)
H36 H 1.3877 -0.1498 0.0764
H37 H 1.4406 -0.3044 0.1049
C18 C 1.3368(4) -0.1967(10) 0.13435(19)
H38 H 1.3679 -0.0877 0.1492
H39 H 1.2832 -0.1396 0.1253
N4 N 1.0484(3) -0.0620(9) 0.14866(17)
H40 H 1.009(3) -0.151(7) 0.155(2)
H41 H 1.033(4) 0.061(6) 0.158(2)
C19 C 1.0544(4) -0.0269(10) 0.10325(18)
H42 H 0.9992 0.0144 0.0919
C20 C 1.0800(4) -0.2243(10) 0.08153(18)
H43 H 1.1330 -0.2722 0.0935
H44 H 1.0387 -0.3323 0.0860
C21 C 1.0880(5) -0.1869(12) 0.0350(2)
H45 H 1.1069 -0.3139 0.0215
H46 H 1.0338 -0.1506 0.0226
C22 C 1.1479(5) -0.0161(12) 0.0273(2)
H47 H 1.1507 0.0087 -0.0028
H48 H 1.2030 -0.0574 0.0377
C23 C 1.1225(4) 0.1812(11) 0.04888(19)
H49 H 1.0699 0.2303 0.0366
H50 H 1.1643 0.2884 0.0446
C24 C 1.1135(4) 0.1437(11) 0.09526(18)
H51 H 1.1676 0.1088 0.1079
H52 H 1.0942 0.2707 0.1085
Br3A Br 0.87375(4) -0.07391(10) 0.225838(18)
Br4A Br 1.05646(4) 0.42624(10) 0.191843(19)
Br4_2 Br 0.94354(4) -0.57376(10) 0.308157(19)
Br4A_2 Br 1.05646(4) -0.57376(10) 0.191843(19)
Ag5_2 Ag 1.0000 0.68140(12) 0.2500
Ag6A Ag 0.84630(3) -0.18260(9) 0.315170(15)
Ag6A_2 Ag 0.84630(3) 0.81740(9) 0.315170(15)
Ag6_2 Ag 1.15370(3) 0.81740(9) 0.184830(15)
N3A N 0.7235(3) -0.3063(10) 0.30037(16)
H27A H 0.689(3) -0.215(8) 0.2890(17)
H28A H 0.726(4) -0.413(7) 0.2831(16)
C13A C 0.6761(4) -0.3755(11) 0.33667(19)
H29A H 0.6215 -0.4258 0.3264
C14A C 0.7198(4) -0.5490(10) 0.35899(19)
H30A H 0.7746 -0.5024 0.3689
H31A H 0.7273 -0.6643 0.3396
C15A C 0.6711(4) -0.6218(11) 0.3957(2)
H32A H 0.6177 -0.6768 0.3857
H33A H 0.7012 -0.7330 0.4103
C16A C 0.6574(4) -0.4456(11) 0.4253(2)
H34A H 0.7107 -0.4008 0.4374
H35A H 0.6233 -0.4933 0.4482
C17A C 0.6158(4) -0.2654(11) 0.4038(2)
H36A H 0.6123 -0.1498 0.4236
H37A H 0.5594 -0.3044 0.3951
C18A C 0.6632(4) -0.1967(10) 0.36565(19)
H38A H 0.6321 -0.0877 0.3508
H39A H 0.7168 -0.1396 0.3747
N4A N 0.9516(3) -0.0620(9) 0.35134(17)
H40A H 0.991(3) -0.151(7) 0.345(2)
H41A H 0.967(4) 0.061(6) 0.342(2)
C19A C 0.9456(4) -0.0269(10) 0.39675(18)
H42A H 1.0008 0.0144 0.4081
C20A C 0.9200(4) -0.2243(10) 0.41847(18)
H43A H 0.8670 -0.2722 0.4065
H44A H 0.9613 -0.3323 0.4140
C21A C 0.9120(5) -0.1869(12) 0.4650(2)
H45A H 0.8931 -0.3139 0.4785
H46A H 0.9662 -0.1506 0.4774
C22A C 0.8521(5) -0.0161(12) 0.4727(2)
H47A H 0.8493 0.0087 0.5028
H48A H 0.7970 -0.0574 0.4623
C23A C 0.8775(4) 0.1812(11) 0.45112(19)
H49A H 0.9301 0.2303 0.4634
H50A H 0.8357 0.2884 0.4554
C24A C 0.8865(4) 0.1437(11) 0.40474(18)
H51A H 0.8324 0.1088 0.3921
H52A H 0.9058 0.2707 0.3915
loop_
_geom_bond_atom_site_label_1
_geom_bond_atom_site_label_2
_geom_bond_site_symmetry_1
_geom_bond_site_symmetry_2
Ag1 Br1 1_555 1_555
Br1 Ag2 1_555 1_555
Ag2 Br1A 1_555 1_555
Br2 Ag1 1_555 1_555
Br3 Ag4 1_555 1_555
Ag3 Br1 1_555 1_555
Ag4 Br4 1_555 1_555
Br4 Ag5_2 1_555 1_555
Ag5 Br3 1_555 1_555
Ag6 Br3 1_555 1_555
N1 Ag3 1_555 1_555
H1 N1 1_555 1_555
H2 N1 1_555 1_555
C1 N1 1_555 1_555
H3 C1 1_555 1_555
C2 C1 1_555 1_555
H4 C2 1_555 1_555
H5 C2 1_555 1_555
C3 C2 1_555 1_555
H6 C3 1_555 1_555
H7 C3 1_555 1_555
C4 C3 1_555 1_555
H8 C4 1_555 1_555
H9 C4 1_555 1_555
C5 C4 1_555 1_555
H10 C5 1_555 1_555
H11 C5 1_555 1_555
C6 C1 1_555 1_555
H12 C6 1_555 1_555
H13 C6 1_555 1_555
N2 Ag3 1_555 1_555
H14 N2 1_555 1_555
H15 N2 1_555 1_555
C7 N2 1_555 1_555
H16 C7 1_555 1_555
C8 C7 1_555 1_555
H17 C8 1_555 1_555
H18 C8 1_555 1_555
C9 C8 1_555 1_555
H19 C9 1_555 1_555
H20 C9 1_555 1_555
C10 C9 1_555 1_555
H21 C10 1_555 1_555
H22 C10 1_555 1_555
C11 C10 1_555 1_555
H23 C11 1_555 1_555
H24 C11 1_555 1_555
C12 C7 1_555 1_555
H25 C12 1_555 1_555
H26 C12 1_555 1_555
N3 Ag6 1_555 1_555
H27 N3 1_555 1_555
H28 N3 1_555 1_555
C13 N3 1_555 1_555
H29 C13 1_555 1_555
C14 C13 1_555 1_555
H30 C14 1_555 1_555
H31 C14 1_555 1_555
C15 C14 1_555 1_555
H32 C15 1_555 1_555
H33 C15 1_555 1_555
C16 C15 1_555 1_555
H34 C16 1_555 1_555
H35 C16 1_555 1_555
C17 C16 1_555 1_555
H36 C17 1_555 1_555
H37 C17 1_555 1_555
C18 C13 1_555 1_555
H38 C18 1_555 1_555
H39 C18 1_555 1_555
N4 Ag6 1_555 1_555
H40 N4 1_555 1_555
H41 N4 1_555 1_555
C19 N4 1_555 1_555
H42 C19 1_555 1_555
C20 C19 1_555 1_555
H43 C20 1_555 1_555
H44 C20 1_555 1_555
C21 C20 1_555 1_555
H45 C21 1_555 1_555
H46 C21 1_555 1_555
C22 C21 1_555 1_555
H47 C22 1_555 1_555
H48 C22 1_555 1_555
C23 C22 1_555 1_555
H49 C23 1_555 1_555
H50 C23 1_555 1_555
C24 C19 1_555 1_555
H51 C24 1_555 1_555
H52 C24 1_555 1_555
Br1A Ag1 1_555 1_555
Ag2_2 Br2 1_555 1_555
Br2A Ag1 1_555 1_555
Br2_2 Ag2 1_555 1_555
Br2A_2 Ag2 1_555 1_555
Br3A Ag4 1_555 1_555
Ag3A Br1A 1_555 1_555
Ag3_2 Br2 1_555 1_555
Ag3A_2 Br2A 1_555 1_555
Br4A Ag4 1_555 1_555
Br4_2 Ag5 1_555 1_555
Br4A_2 Ag5 1_555 1_555
Ag5_2 Br4A 1_555 1_555
Ag6A Br3A 1_555 1_555
Ag6A_2 Br4 1_555 1_555
Ag6_2 Br4A 1_555 1_555
N1A Ag3A 1_555 1_555
H1A N1A 1_555 1_555
H2A N1A 1_555 1_555
C1A N1A 1_555 1_555
H3A C1A 1_555 1_555
C2A C1A 1_555 1_555
H4A C2A 1_555 1_555
H5A C2A 1_555 1_555
C3A C2A 1_555 1_555
H6A C3A 1_555 1_555
H7A C3A 1_555 1_555
C4A C3A 1_555 1_555
H8A C4A 1_555 1_555
H9A C4A 1_555 1_555
C5A C4A 1_555 1_555
H10A C5A 1_555 1_555
H11A C5A 1_555 1_555
C6A C1A 1_555 1_555
H12A C6A 1_555 1_555
H13A C6A 1_555 1_555
N2A Ag3A 1_555 1_555
H14A N2A 1_555 1_555
H15A N2A 1_555 1_555
C7A N2A 1_555 1_555
H16A C7A 1_555 1_555
C8A C7A 1_555 1_555
H17A C8A 1_555 1_555
H18A C8A 1_555 1_555
C9A C8A 1_555 1_555
H19A C9A 1_555 1_555
H20A C9A 1_555 1_555
C10A C9A 1_555 1_555
H21A C10A 1_555 1_555
H22A C10A 1_555 1_555
C11A C10A 1_555 1_555
H23A C11A 1_555 1_555
H24A C11A 1_555 1_555
C12A C7A 1_555 1_555
H25A C12A 1_555 1_555
H26A C12A 1_555 1_555
N3A Ag6A 1_555 1_555
H27A N3A 1_555 1_555
H28A N3A 1_555 1_555
C13A N3A 1_555 1_555
H29A C13A 1_555 1_555
C14A C13A 1_555 1_555
H30A C14A 1_555 1_555
H31A C14A 1_555 1_555
C15A C14A 1_555 1_555
H32A C15A 1_555 1_555
H33A C15A 1_555 1_555
C16A C15A 1_555 1_555
H34A C16A 1_555 1_555
H35A C16A 1_555 1_555
C17A C16A 1_555 1_555
H36A C17A 1_555 1_555
H37A C17A 1_555 1_555
C18A C13A 1_555 1_555
H38A C18A 1_555 1_555
H39A C18A 1_555 1_555
N4A Ag6A 1_555 1_555
H40A N4A 1_555 1_555
H41A N4A 1_555 1_555
C19A N4A 1_555 1_555
H42A C19A 1_555 1_555
C20A C19A 1_555 1_555
H43A C20A 1_555 1_555
H44A C20A 1_555 1_555
C21A C20A 1_555 1_555
H45A C21A 1_555 1_555
H46A C21A 1_555 1_555
C22A C21A 1_555 1_555
H47A C22A 1_555 1_555
H48A C22A 1_555 1_555
C23A C22A 1_555 1_555
H49A C23A 1_555 1_555
H50A C23A 1_555 1_555
C24A C19A 1_555 1_555
H51A C24A 1_555 1_555
H52A C24A 1_555 1_555
Ag3 Br2_2 1_555 1_555
Ag5 Br3A 1_555 1_555
Ag6 Br4A_2 1_555 1_555
C5 C6 1_555 1_555
C11 C12 1_555 1_555
C17 C18 1_555 1_555
C23 C24 1_555 1_555
Ag2_2 Br2A 1_555 1_555
Br2A_2 Ag3A 1_555 1_555
Br4_2 Ag6A 1_555 1_555
C5A C6A 1_555 1_555
C11A C12A 1_555 1_555
C17A C18A 1_555 1_555
C23A C24A 1_555 1_555

#END
