
#######################################################################
#
#                 Cambridge Crystallographic Data Centre
#                                CCDC 
#
#######################################################################
#
# If this CIF has been generated from an entry in the Cambridge 
# Structural Database, then it will include bibliographic, chemical, 
# crystal, experimental, refinement or atomic coordinate data resulting 
# from the CCDC's data processing and validation procedures.
#
#######################################################################

data_YUXWOE
_symmetry_cell_setting           monoclinic
_symmetry_space_group_name_H-M   'P 21/n'
_symmetry_Int_Tables_number      14
_space_group_name_Hall           '-P 2yn'
loop_
_symmetry_equiv_pos_site_id
_symmetry_equiv_pos_as_xyz
1 x,y,z
2 1/2-x,1/2+y,1/2-z
3 -x,-y,-z
4 1/2+x,1/2-y,1/2+z
_cell_length_a                   8.8772(12)
_cell_length_b                   20.861(3)
_cell_length_c                   31.524(4)
_cell_angle_alpha                90
_cell_angle_beta                 91.102(7)
_cell_angle_gamma                90
_cell_volume                     5836.76
loop_
_atom_site_label
_atom_site_type_symbol
_atom_site_fract_x
_atom_site_fract_y
_atom_site_fract_z
Ag1 Ag 0.73837(16) 0.33863(7) 0.23532(4)
Ag2 Ag 0.76021(15) 0.50017(7) 0.26228(4)
Ag3 Ag 0.72634(15) 0.17888(6) 0.26812(4)
Ag4 Ag 0.47712(16) 0.43068(9) 0.29161(5)
Ag5 Ag 0.99574(14) 0.08819(7) 0.29803(4)
Ag6 Ag 1.00709(16) 0.23038(8) 0.20501(5)
Ag7 Ag 0.75314(17) 0.30839(6) 0.33470(4)
Ag8 Ag 0.80124(16) 0.47226(6) 0.16636(4)
Ag9 Ag 0.76294(18) 0.13943(7) 0.16923(4)
Br1 Br 0.9753(2) 0.41468(9) 0.22545(6)
Br2 Br 0.94722(19) 0.59938(8) 0.27479(6)
Br3 Br 0.52057(19) 0.28320(8) 0.28007(6)
Br4 Br 0.5300(2) 0.44443(8) 0.20779(5)
Br5 Br 1.0074(2) 0.08743(8) 0.21007(6)
Br6 Br 0.97478(19) 0.24389(8) 0.28947(5)
Br7 Br 0.73347(19) 0.43500(8) 0.33988(5)
Br8 Br 0.74942(18) 0.09871(8) 0.34252(5)
Br9 Br 0.7613(2) 0.26695(8) 0.16053(5)
N1 N 0.2342(16) 0.4251(8) 0.3139(5)
H1 H 0.1730 0.4191 0.2899
N2 N 1.2532(16) 0.0831(8) 0.3088(5)
H2 H 1.2914 0.0707 0.2828
N3 N 1.2563(16) 0.2398(7) 0.1907(5)
H3 H 1.3078 0.2288 0.2156
N4 N 0.7925(19) 0.2455(7) 0.3941(5)
H4 H 0.8005 0.2036 0.3843
N5 N 0.784(2) 0.4118(7) 0.1048(5)
H5 H 0.8059 0.3697 0.1125
N6 N 0.739(3) 0.0793(8) 0.1076(5)
H6 H 0.7413 0.0365 0.1158
C1 C 0.211(2) 0.3699(9) 0.3422(6)
H7 H 0.2437 0.3302 0.3278
H8 H 0.1021 0.3657 0.3480
C2 C 0.296(2) 0.3772(8) 0.3829(5)
H9 H 0.4055 0.3753 0.3773
H10 H 0.2714 0.3410 0.4018
C3 C 0.261(2) 0.4394(9) 0.4051(6)
H11 H 0.1541 0.4375 0.4144
C4 C 0.275(2) 0.4947(9) 0.3744(6)
H12 H 0.2390 0.5343 0.3882
H13 H 0.3825 0.5009 0.3678
C5 C 0.187(2) 0.4850(9) 0.3338(7)
H14 H 0.0783 0.4834 0.3397
H15 H 0.2055 0.5214 0.3144
C6 C 0.361(3) 0.4489(10) 0.4446(6)
H16 H 0.3492 0.4124 0.4638
H17 H 0.3321 0.4885 0.4590
H18 H 0.4668 0.4520 0.4362
C7 C 1.306(2) 0.0349(10) 0.3386(7)
H19 H 1.4172 0.0309 0.3370
H20 H 1.2613 -0.0072 0.3311
C8 C 1.264(3) 0.0526(12) 0.3833(7)
H21 H 1.3048 0.0200 0.4033
H22 H 1.1531 0.0528 0.3855
C9 C 1.326(2) 0.1188(11) 0.3956(6)
H23 H 1.4388 0.1159 0.3946
C10 C 1.278(2) 0.1666(10) 0.3623(7)
H24 H 1.3252 0.2085 0.3689
H25 H 1.1672 0.1722 0.3635
C11 C 1.320(2) 0.1465(9) 0.3173(6)
H26 H 1.2803 0.1781 0.2965
H27 H 1.4306 0.1444 0.3149
C12 C 1.288(4) 0.141(2) 0.4394(8)
H28 H 1.3216 0.1089 0.4602
H29 H 1.1788 0.1468 0.4412
H30 H 1.3388 0.1819 0.4454
C13 C 1.308(2) 0.1943(9) 0.1581(6)
H31 H 1.2838 0.1497 0.1663
H32 H 1.4182 0.1978 0.1546
C14 C 1.223(2) 0.2127(9) 0.1160(6)
H33 H 1.2524 0.1828 0.0932
H34 H 1.1131 0.2085 0.1199
C15 C 1.260(2) 0.2809(9) 0.1030(6)
H35 H 1.3699 0.2837 0.0973
C16 C 1.224(2) 0.3269(9) 0.1389(6)
H36 H 1.1134 0.3280 0.1432
H37 H 1.2570 0.3707 0.1315
C17 C 1.305(2) 0.3044(10) 0.1802(6)
H38 H 1.4154 0.3050 0.1763
H39 H 1.2812 0.3340 0.2037
C18 C 1.171(3) 0.2988(13) 0.0621(7)
H40 H 1.1962 0.3428 0.0540
H41 H 1.0631 0.2955 0.0671
H42 H 1.1989 0.2694 0.0393
C19 C 0.933(2) 0.2593(9) 0.4166(5)
H43 H 1.0184 0.2564 0.3968
H44 H 0.9502 0.2276 0.4395
C20 C 0.927(2) 0.3253(9) 0.4350(6)
H45 H 0.9151 0.3567 0.4116
H46 H 1.0231 0.3345 0.4501
C21 C 0.797(2) 0.3341(9) 0.4658(6)
H47 H 0.8158 0.3050 0.4906
C22 C 0.653(2) 0.3122(10) 0.4433(6)
H48 H 0.6270 0.3434 0.4207
H49 H 0.5703 0.3121 0.4638
C23 C 0.666(2) 0.2458(9) 0.4238(6)
H50 H 0.6832 0.2135 0.4463
H51 H 0.5708 0.2349 0.4084
C24 C 0.781(3) 0.4010(11) 0.4825(7)
H52 H 0.8745 0.4138 0.4972
H53 H 0.6976 0.4025 0.5024
H54 H 0.7602 0.4303 0.4589
C25 C 0.893(3) 0.4297(11) 0.0720(7)
H55 H 0.8842 0.3992 0.0480
H56 H 0.9963 0.4269 0.0840
C26 C 0.864(3) 0.4962(11) 0.0564(6)
H57 H 0.9354 0.5068 0.0338
H58 H 0.8794 0.5270 0.0799
C27 C 0.704(3) 0.5024(9) 0.0390(6)
H59 H 0.6942 0.4757 0.0128
C28 C 0.591(2) 0.4782(10) 0.0707(7)
H60 H 0.4894 0.4778 0.0573
H61 H 0.5890 0.5078 0.0952
C29 C 0.630(3) 0.4113(10) 0.0862(6)
H62 H 0.5573 0.3976 0.1079
H63 H 0.6241 0.3806 0.0623
C30 C 0.663(5) 0.5733(12) 0.0273(9)
H64 H 0.7356 0.5895 0.0067
H65 H 0.6681 0.5998 0.0529
H66 H 0.5615 0.5750 0.0149
C31 C 0.858(3) 0.0872(12) 0.0779(7)
H67 H 0.8442 0.0562 0.0544
H68 H 0.9558 0.0785 0.0921
C32 C 0.857(2) 0.1542(11) 0.0604(6)
H69 H 0.9393 0.1586 0.0398
H70 H 0.8762 0.1850 0.0838
C33 C 0.709(2) 0.1697(9) 0.0388(6)
H71 H 0.6964 0.1412 0.0135
C34 C 0.582(2) 0.1568(10) 0.0684(6)
H72 H 0.5869 0.1879 0.0921
H73 H 0.4849 0.1632 0.0530
C35 C 0.588(3) 0.0901(12) 0.0859(7)
H74 H 0.5729 0.0586 0.0627
H75 H 0.5063 0.0841 0.1066
C36 C 0.708(4) 0.2398(12) 0.0236(9)
H76 H 0.7917 0.2467 0.0043
H77 H 0.7192 0.2685 0.0481
H78 H 0.6125 0.2490 0.0087
Ag3A Ag 0.77366(15) 0.67888(6) 0.23188(4)
Ag8A Ag 0.69876(16) -0.02774(6) 0.33364(4)
Ag9A Ag 0.73706(18) 0.63943(7) 0.33077(4)
Br2A Br 0.55278(19) 0.09938(8) 0.22521(6)
Br8A Br 0.75058(18) 0.59871(8) 0.15748(5)
loop_
_geom_bond_atom_site_label_1
_geom_bond_atom_site_label_2
_geom_bond_site_symmetry_1
_geom_bond_site_symmetry_2
Ag1 Br1 1_555 1_555
Ag2 Br1 1_555 1_555
Ag3 Br3 1_555 1_555
Ag4 Br4 1_555 1_555
Ag5 Br5 1_555 1_555
Ag6 Br5 1_555 1_555
Ag7 Br3 1_555 1_555
Ag8 Br1 1_555 1_555
Ag9 Br5 1_555 1_555
Br2 Ag2 1_555 1_555
Br3 Ag1 1_555 1_555
Br4 Ag1 1_555 1_555
Br6 Ag3 1_555 1_555
Br7 Ag2 1_555 1_555
Br8 Ag3 1_555 1_555
Br9 Ag1 1_555 1_555
N1 Ag4 1_555 1_555
H1 N1 1_555 1_555
N2 Ag5 1_555 1_555
H2 N2 1_555 1_555
N3 Ag6 1_555 1_555
H3 N3 1_555 1_555
N4 Ag7 1_555 1_555
H4 N4 1_555 1_555
N5 Ag8 1_555 1_555
H5 N5 1_555 1_555
N6 Ag9 1_555 1_555
H6 N6 1_555 1_555
C1 N1 1_555 1_555
H7 C1 1_555 1_555
H8 C1 1_555 1_555
C2 C1 1_555 1_555
H9 C2 1_555 1_555
H10 C2 1_555 1_555
C3 C2 1_555 1_555
H11 C3 1_555 1_555
C4 C3 1_555 1_555
H12 C4 1_555 1_555
H13 C4 1_555 1_555
C5 N1 1_555 1_555
H14 C5 1_555 1_555
H15 C5 1_555 1_555
C6 C3 1_555 1_555
H16 C6 1_555 1_555
H17 C6 1_555 1_555
H18 C6 1_555 1_555
C7 N2 1_555 1_555
H19 C7 1_555 1_555
H20 C7 1_555 1_555
C8 C7 1_555 1_555
H21 C8 1_555 1_555
H22 C8 1_555 1_555
C9 C8 1_555 1_555
H23 C9 1_555 1_555
C10 C9 1_555 1_555
H24 C10 1_555 1_555
H25 C10 1_555 1_555
C11 N2 1_555 1_555
H26 C11 1_555 1_555
H27 C11 1_555 1_555
C12 C9 1_555 1_555
H28 C12 1_555 1_555
H29 C12 1_555 1_555
H30 C12 1_555 1_555
C13 N3 1_555 1_555
H31 C13 1_555 1_555
H32 C13 1_555 1_555
C14 C13 1_555 1_555
H33 C14 1_555 1_555
H34 C14 1_555 1_555
C15 C14 1_555 1_555
H35 C15 1_555 1_555
C16 C15 1_555 1_555
H36 C16 1_555 1_555
H37 C16 1_555 1_555
C17 N3 1_555 1_555
H38 C17 1_555 1_555
H39 C17 1_555 1_555
C18 C15 1_555 1_555
H40 C18 1_555 1_555
H41 C18 1_555 1_555
H42 C18 1_555 1_555
C19 N4 1_555 1_555
H43 C19 1_555 1_555
H44 C19 1_555 1_555
C20 C19 1_555 1_555
H45 C20 1_555 1_555
H46 C20 1_555 1_555
C21 C20 1_555 1_555
H47 C21 1_555 1_555
C22 C21 1_555 1_555
H48 C22 1_555 1_555
H49 C22 1_555 1_555
C23 N4 1_555 1_555
H50 C23 1_555 1_555
H51 C23 1_555 1_555
C24 C21 1_555 1_555
H52 C24 1_555 1_555
H53 C24 1_555 1_555
H54 C24 1_555 1_555
C25 N5 1_555 1_555
H55 C25 1_555 1_555
H56 C25 1_555 1_555
C26 C25 1_555 1_555
H57 C26 1_555 1_555
H58 C26 1_555 1_555
C27 C26 1_555 1_555
H59 C27 1_555 1_555
C28 C27 1_555 1_555
H60 C28 1_555 1_555
H61 C28 1_555 1_555
C29 N5 1_555 1_555
H62 C29 1_555 1_555
H63 C29 1_555 1_555
C30 C27 1_555 1_555
H64 C30 1_555 1_555
H65 C30 1_555 1_555
H66 C30 1_555 1_555
C31 N6 1_555 1_555
H67 C31 1_555 1_555
H68 C31 1_555 1_555
C32 C31 1_555 1_555
H69 C32 1_555 1_555
H70 C32 1_555 1_555
C33 C32 1_555 1_555
H71 C33 1_555 1_555
C34 C33 1_555 1_555
H72 C34 1_555 1_555
H73 C34 1_555 1_555
C35 N6 1_555 1_555
H74 C35 1_555 1_555
H75 C35 1_555 1_555
C36 C33 1_555 1_555
H76 C36 1_555 1_555
H77 C36 1_555 1_555
H78 C36 1_555 1_555
Ag3A Br2 1_555 1_555
Ag8A Br8 1_555 1_555
Ag9A Br2 1_555 1_555
Br2A Ag3 1_555 1_555
Br8A Ag8 1_555 1_555
Ag2 Br4 1_555 1_555
Ag4 Br7 1_555 1_555
Ag5 Br8 1_555 1_555
Ag6 Br6 1_555 1_555
Ag6 Br9 1_555 1_555
Ag7 Br6 1_555 1_555
Ag7 Br7 1_555 1_555
Ag8 Br4 1_555 1_555
Ag9 Br9 1_555 1_555
Ag9 Br2A 1_555 1_555
C4 C5 1_555 1_555
C10 C11 1_555 1_555
C16 C17 1_555 1_555
C22 C23 1_555 1_555
C28 C29 1_555 1_555
C34 C35 1_555 1_555
Ag3A Br8A 1_555 1_555

#END
