
#######################################################################
#
#                 Cambridge Crystallographic Data Centre
#                                CCDC 
#
#######################################################################
#
# If this CIF has been generated from an entry in the Cambridge 
# Structural Database, then it will include bibliographic, chemical, 
# crystal, experimental, refinement or atomic coordinate data resulting 
# from the CCDC's data processing and validation procedures.
#
#######################################################################

data_YUXXAR
_symmetry_cell_setting           monoclinic
_symmetry_space_group_name_H-M   'C 2/c'
_symmetry_Int_Tables_number      15
_space_group_name_Hall           '-C 2yn'
loop_
_symmetry_equiv_pos_site_id
_symmetry_equiv_pos_as_xyz
1 x,y,z
2 -x,y,1/2-z
3 1/2+x,1/2+y,z
4 1/2-x,1/2+y,1/2-z
5 -x,-y,-z
6 x,-y,1/2+z
7 1/2-x,1/2-y,-z
8 1/2+x,1/2-y,1/2+z
_cell_length_a                   23.481(2)
_cell_length_b                   6.3783(6)
_cell_length_c                   16.7011(14)
_cell_angle_alpha                90
_cell_angle_beta                 111.114(4)
_cell_angle_gamma                90
_cell_volume                     2333.38
loop_
_atom_site_label
_atom_site_type_symbol
_atom_site_fract_x
_atom_site_fract_y
_atom_site_fract_z
Ag1 Ag 0.174271(6) 0.12275(2) 0.233281(8)
Br1 Br 0.245691(7) 0.43183(3) 0.332467(10)
O1 O 0.04507(6) 0.5886(2) 0.12028(9)
N1 N 0.16895(7) -0.1096(2) 0.33859(10)
C1 C 0.03064(8) 0.3857(3) 0.14334(13)
H1 H -0.0128 0.3823 0.1375
H2 H 0.0557 0.3576 0.2042
C2 C 0.12083(9) 0.4308(3) 0.07078(12)
H3 H 0.0956 0.4544 0.0097
H4 H 0.1643 0.4377 0.0770
N2 N 0.10714(7) 0.2225(2) 0.09799(9)
C3 C 0.15233(8) 0.1375(3) 0.43923(11)
H5 H 0.1711 0.2026 0.4966
H6 H 0.1437 0.2500 0.3956
O2 O 0.09630(6) 0.0361(2) 0.43312(8)
C4 C 0.19642(7) -0.0181(3) 0.42537(10)
H7 H 0.2352 0.0531 0.4313
H8 H 0.2055 -0.1305 0.4691
C5 C 0.11135(8) -0.2139(3) 0.33221(12)
H9 H 0.1201 -0.3309 0.3739
H10 H 0.0915 -0.2726 0.2739
C6 C 0.04208(8) 0.2165(3) 0.08787(11)
H11 H 0.0318 0.0776 0.1054
H12 H 0.0162 0.2402 0.0270
C7 C 0.10738(8) 0.5975(3) 0.12537(12)
H13 H 0.1348 0.5788 0.1858
H14 H 0.1156 0.7373 0.1061
C8 C 0.06890(8) -0.0584(3) 0.35060(11)
H15 H 0.0578 0.0522 0.3060
H16 H 0.0310 -0.1312 0.3477
H17 H 0.1119(12) 0.136(4) 0.0679(17)
H18 H 0.1897(12) -0.214(4) 0.3326(16)
Ag1C Ag 0.325729(6) 0.62275(2) 0.266719(8)
Br1C Br 0.254309(7) -0.06817(3) 0.167533(10)
loop_
_geom_bond_atom_site_label_1
_geom_bond_atom_site_label_2
_geom_bond_site_symmetry_1
_geom_bond_site_symmetry_2
Ag1 Br1 1_555 1_555
Br1 Ag1C 1_555 1_555
O1 C1 1_555 1_555
N1 Ag1 1_555 1_555
C1 H1 1_555 1_555
H2 C1 1_555 1_555
C2 H3 1_555 1_555
H4 C2 1_555 1_555
N2 Ag1 1_555 1_555
C3 H5 1_555 1_555
H6 C3 1_555 1_555
O2 C3 1_555 1_555
C4 N1 1_555 1_555
H7 C4 1_555 1_555
H8 C4 1_555 1_555
C5 N1 1_555 1_555
H9 C5 1_555 1_555
H10 C5 1_555 1_555
C6 C1 1_555 1_555
H11 C6 1_555 1_555
H12 C6 1_555 1_555
C7 O1 1_555 1_555
H13 C7 1_555 1_555
H14 C7 1_555 1_555
C8 O2 1_555 1_555
H15 C8 1_555 1_555
H16 C8 1_555 1_555
H17 N2 1_555 1_555
H18 N1 1_555 1_555
Br1C Ag1 1_555 1_555
C2 N2 1_555 1_555
C2 C7 1_555 1_555
N2 C6 1_555 1_555
C3 C4 1_555 1_555
C5 C8 1_555 1_555

#END
