
#######################################################################
#
#                 Cambridge Crystallographic Data Centre
#                                CCDC 
#
#######################################################################
#
# If this CIF has been generated from an entry in the Cambridge 
# Structural Database, then it will include bibliographic, chemical, 
# crystal, experimental, refinement or atomic coordinate data resulting 
# from the CCDC's data processing and validation procedures.
#
#######################################################################

data_YUYBIE
_symmetry_cell_setting           triclinic
_symmetry_space_group_name_H-M   'P -1'
_symmetry_Int_Tables_number      2
_space_group_name_Hall           '-P 1'
loop_
_symmetry_equiv_pos_site_id
_symmetry_equiv_pos_as_xyz
1 x,y,z
2 -x,-y,-z
_cell_length_a                   10.0261(15)
_cell_length_b                   10.6352(16)
_cell_length_c                   12.5835(19)
_cell_angle_alpha                66.299(2)
_cell_angle_beta                 75.767(1)
_cell_angle_gamma                65.549(2)
_cell_volume                     1113.32
loop_
_atom_site_label
_atom_site_type_symbol
_atom_site_fract_x
_atom_site_fract_y
_atom_site_fract_z
C1 C 0.3940(7) 0.4226(6) 0.7286(4)
H1 H 0.4389 0.3660 0.7976
C2 C 0.2609(6) 0.6129(6) 0.5953(4)
C3 C 0.1730(6) 0.7496(6) 0.5271(5)
H2 H 0.1266 0.8285 0.5542
C4 C 0.1584(6) 0.7614(6) 0.4163(5)
H3 H 0.1042 0.8519 0.3664
C5 C 0.2229(5) 0.6409(5) 0.3774(4)
C6 C 0.3093(6) 0.5052(5) 0.4467(4)
H4 H 0.3528 0.4256 0.4205
C7 C 0.3286(6) 0.4922(5) 0.5571(4)
C8 C 0.1973(5) 0.6584(5) 0.2589(4)
C9 C 0.7599(5) 0.1248(5) 0.1876(4)
C10 C 0.7461(5) 0.0201(5) 0.3080(4)
C11 C 0.8156(6) -0.1339(5) 0.3318(4)
H5 H 0.8616 -0.1686 0.2701
C12 C 0.8167(6) -0.2321(5) 0.4423(4)
H6 H 0.8619 -0.3327 0.4567
C13 C 0.7479(6) -0.1770(5) 0.5331(4)
C14 C 0.6591(7) -0.1350(6) 0.6974(5)
H7 H 0.6359 -0.1523 0.7771
C15 C 0.6773(5) -0.0244(5) 0.5117(4)
C16 C 0.6745(5) 0.0744(5) 0.3983(4)
H8 H 0.6257 0.1748 0.3833
C17 C 0.5176(5) 0.5600(5) 0.0087(4)
C18 C 0.0007(5) 0.4547(5) 0.0659(4)
Cu1 Cu 0.52259(8) 0.18044(7) 0.64142(5)
Eu1 Eu 0.16578(2) 0.67448(2) 0.034098(17)
N1 N 0.4112(5) 0.3725(4) 0.6439(3)
N2 N 0.3051(6) 0.5635(5) 0.7050(4)
H9 H 0.2800 0.6141 0.7501
N3 N 0.6222(5) -0.0020(4) 0.6178(3)
N4 N 0.7329(6) -0.2417(5) 0.6520(4)
H10 H 0.7652 -0.3344 0.6903
O1 O 0.2128(5) 0.5457(4) 0.2386(3)
O2 O 0.1594(4) 0.7836(4) 0.1819(3)
O3 O 0.8282(4) 0.0794(4) 0.1034(3)
O4 O 0.7065(4) 0.2616(4) 0.1710(3)
O5 O 0.6499(4) 0.5509(4) -0.0122(3)
O6 O 0.4145(4) 0.6541(4) 0.0432(3)
O7 O -0.0506(4) 0.3533(4) 0.0994(3)
O8 O 0.0525(4) 0.4871(4) 0.1270(3)
O9 O -0.0890(4) 0.8267(4) 0.0582(3)
H11 H -0.1169 0.9110 0.0641
H12 H -0.1108 0.8390 -0.0073
C1A C 0.6060(7) 0.5774(6) -0.7286(4)
H1A H 0.5611 0.6340 -0.7976
C2A C 0.7391(6) 0.3871(6) -0.5953(4)
C3A C 0.8270(6) 0.2504(6) -0.5271(5)
H2A H 0.8734 0.1715 -0.5542
C4A C 0.8416(6) 0.2386(6) -0.4163(5)
H3A H 0.8958 0.1481 -0.3664
C5A C 0.7771(5) 0.3591(5) -0.3774(4)
C6A C 0.6907(6) 0.4948(5) -0.4467(4)
H4A H 0.6472 0.5744 -0.4205
C7A C 0.6714(6) 0.5078(5) -0.5571(4)
C8A C 0.8027(5) 0.3416(5) -0.2589(4)
C9A C 0.2401(5) 0.8752(5) -0.1876(4)
C10A C 0.2539(5) 0.9799(5) -0.3080(4)
C11A C 0.1844(6) 1.1339(5) -0.3318(4)
H5A H 0.1384 1.1686 -0.2701
C12A C 0.1833(6) 1.2321(5) -0.4423(4)
H6A H 0.1381 1.3327 -0.4567
C13A C 0.2521(6) 1.1770(5) -0.5331(4)
C14A C 0.3409(7) 1.1350(6) -0.6974(5)
H7A H 0.3641 1.1523 -0.7771
C15A C 0.3227(5) 1.0244(5) -0.5117(4)
C16A C 0.3255(5) 0.9256(5) -0.3983(4)
H8A H 0.3743 0.8252 -0.3833
C17A C 0.4824(5) 0.4400(5) -0.0087(4)
C18A C -0.0007(5) 0.5453(5) -0.0659(4)
Cu1A Cu 0.47741(8) 0.81956(7) -0.64142(5)
Eu1A Eu 0.83422(2) 0.32552(2) -0.034098(17)
Eu1A_2 Eu -0.16578(2) 0.32552(2) -0.034098(17)
N1A N 0.5888(5) 0.6275(4) -0.6439(3)
N2A N 0.6949(6) 0.4365(5) -0.7050(4)
H9A H 0.7200 0.3859 -0.7501
N3A N 0.3778(5) 1.0020(4) -0.6178(3)
N4A N 0.2671(6) 1.2417(5) -0.6520(4)
H10A H 0.2348 1.3344 -0.6903
O1A O 0.7872(5) 0.4543(4) -0.2386(3)
O2A O 0.8406(4) 0.2164(4) -0.1819(3)
O3A O 0.1718(4) 0.9206(4) -0.1034(3)
O4A O 0.2935(4) 0.7384(4) -0.1710(3)
O5A O 0.3501(4) 0.4491(4) 0.0122(3)
O6A O 0.5855(4) 0.3459(4) -0.0432(3)
O7A O 0.0506(4) 0.6467(4) -0.0994(3)
O7_2 O 0.9494(4) 0.3533(4) 0.0994(3)
O8A O -0.0525(4) 0.5129(4) -0.1270(3)
O8A_2 O 0.9475(4) 0.5129(4) -0.1270(3)
O9A O 1.0890(4) 0.1733(4) -0.0582(3)
H11A H 1.1169 0.0890 -0.0641
H12A H 1.1108 0.1610 0.0073
O10 O 0.6619(5) 0.8047(4) 0.0035(4)
H13 H 0.6539 0.7294 0.0012
H14 H 0.5755 0.8653 0.0115
O11 O 0.6086(5) 0.0959(5) 0.8551(4)
H15 H 0.6797 0.1252 0.8434
H16 H 0.5987 0.0931 0.7910
loop_
_geom_bond_atom_site_label_1
_geom_bond_atom_site_label_2
_geom_bond_site_symmetry_1
_geom_bond_site_symmetry_2
C1 H1 1_555 1_555
C2 C3 1_555 1_555
C3 H2 1_555 1_555
C4 C3 1_555 1_555
H3 C4 1_555 1_555
C5 C4 1_555 1_555
C6 C5 1_555 1_555
H4 C6 1_555 1_555
C7 C2 1_555 1_555
C8 C5 1_555 1_555
C9 C10 1_555 1_555
C10 C11 1_555 1_555
C11 H5 1_555 1_555
C12 C11 1_555 1_555
H6 C12 1_555 1_555
C13 C12 1_555 1_555
C14 H7 1_555 1_555
C15 C13 1_555 1_555
C16 C10 1_555 1_555
H8 C16 1_555 1_555
C17 O5 1_555 1_555
C18 O7 1_555 1_555
Cu1 N1 1_555 1_555
Eu1 O1 1_555 1_555
N1 C1 1_555 1_555
N2 C1 1_555 1_555
H9 N2 1_555 1_555
N3 C14 1_555 1_555
N4 C13 1_555 1_555
H10 N4 1_555 1_555
O1 C8 1_555 1_555
O2 C8 1_555 1_555
O3 C9 1_555 1_555
O4 C9 1_555 1_555
O5 Eu1A 1_555 1_555
O6 C17 1_555 1_555
O7 Eu1A_2 1_555 1_555
O8 C18 1_555 1_555
O9 Eu1 1_555 1_555
H11 O9 1_555 1_555
H12 O9 1_555 1_555
O10 H13 1_555 1_555
H14 O10 1_555 1_555
O11 H15 1_555 1_555
H16 O11 1_555 1_555
C1A H1A 1_555 1_555
C2A C3A 1_555 1_555
C3A H2A 1_555 1_555
C4A C3A 1_555 1_555
H3A C4A 1_555 1_555
C5A C4A 1_555 1_555
C6A C5A 1_555 1_555
H4A C6A 1_555 1_555
C7A C2A 1_555 1_555
C8A C5A 1_555 1_555
C9A C10A 1_555 1_555
C10A C11A 1_555 1_555
C11A H5A 1_555 1_555
C12A C11A 1_555 1_555
H6A C12A 1_555 1_555
C13A C12A 1_555 1_555
C14A H7A 1_555 1_555
C15A C13A 1_555 1_555
C16A C10A 1_555 1_555
H8A C16A 1_555 1_555
C17A C17 1_555 1_555
C18A C18 1_555 1_555
Cu1A N1A 1_555 1_555
Eu1A O3 1_555 1_555
Eu1A_2 O8A 1_555 1_555
N1A C1A 1_555 1_555
N2A C1A 1_555 1_555
H9A N2A 1_555 1_555
N3A C14A 1_555 1_555
N4A C13A 1_555 1_555
H10A N4A 1_555 1_555
O1A C8A 1_555 1_555
O2A C8A 1_555 1_555
O3A Eu1 1_555 1_555
O4A Eu1 1_555 1_555
O5A Eu1 1_555 1_555
O6A C17A 1_555 1_555
O7A Eu1 1_555 1_555
O7_2 Eu1A 1_555 1_555
O8A C18A 1_555 1_555
O8A_2 Eu1A 1_555 1_555
O9A Eu1A 1_555 1_555
H11A O9A 1_555 1_555
H12A O9A 1_555 1_555
C2 N2 1_555 1_555
C6 C7 1_555 1_555
C7 N1 1_555 1_555
C14 N4 1_555 1_555
C15 C16 1_555 1_555
C15 N3 1_555 1_555
Cu1 N3 1_555 1_555
Eu1 O2 1_555 1_555
Eu1 O6 1_555 1_555
Eu1 O8 1_555 1_555
O4 Eu1A 1_555 1_555
C2A N2A 1_555 1_555
C6A C7A 1_555 1_555
C7A N1A 1_555 1_555
C9A O3A 1_555 1_555
C9A O4A 1_555 1_555
C14A N4A 1_555 1_555
C15A C16A 1_555 1_555
C15A N3A 1_555 1_555
C17A O5A 1_555 1_555
C18A O7A 1_555 1_555
Cu1A N3A 1_555 1_555
Eu1A O1A 1_555 1_555
Eu1A O2A 1_555 1_555
Eu1A O6A 1_555 1_555

#END
