
#######################################################################
#
#                 Cambridge Crystallographic Data Centre
#                                CCDC 
#
#######################################################################
#
# If this CIF has been generated from an entry in the Cambridge 
# Structural Database, then it will include bibliographic, chemical, 
# crystal, experimental, refinement or atomic coordinate data resulting 
# from the CCDC's data processing and validation procedures.
#
#######################################################################

data_YUYCOL
_symmetry_cell_setting           monoclinic
_symmetry_space_group_name_H-M   'P 21/c'
_symmetry_Int_Tables_number      14
_space_group_name_Hall           '-P 2ybc'
loop_
_symmetry_equiv_pos_site_id
_symmetry_equiv_pos_as_xyz
1 x,y,z
2 -x,1/2+y,1/2-z
3 -x,-y,-z
4 x,1/2-y,1/2+z
_cell_length_a                   8.1710(11)
_cell_length_b                   13.7089(17)
_cell_length_c                   16.7101(17)
_cell_angle_alpha                90
_cell_angle_beta                 91.456(6)
_cell_angle_gamma                90
_cell_volume                     1871.18
loop_
_atom_site_label
_atom_site_type_symbol
_atom_site_fract_x
_atom_site_fract_y
_atom_site_fract_z
Mn1 Mn 0.53040(10) 0.53978(6) 0.34821(5)
O1 O 0.3400(3) 0.6305(2) 0.30806(18)
O2 O 0.4975(4) 0.6467(2) 0.44848(19)
O3 O 0.1152(4) 0.9408(2) 0.3518(2)
O4 O 0.3809(4) 0.9257(2) 0.2221(2)
O5 O 0.2688(4) 0.9686(2) 0.0760(2)
O6 O -0.0006(4) 0.6711(2) 0.2354(2)
O7 O 0.3436(4) 0.4387(2) 0.4002(2)
O8 O 0.6894(4) 0.6388(2) 0.2835(2)
C1 C 0.3169(5) 0.7097(3) 0.3493(2)
C2 C 0.4018(5) 0.7140(3) 0.4297(2)
C3 C 0.3757(5) 0.7967(3) 0.4830(2)
C4 C 0.4460(6) 0.8003(3) 0.5588(2)
C5 C 0.4170(6) 0.8782(4) 0.6095(3)
C6 C 0.3164(7) 0.9529(4) 0.5832(3)
C7 C 0.2463(6) 0.9502(3) 0.5057(3)
C8 C 0.2751(5) 0.8732(3) 0.4557(2)
C9 C 0.2031(6) 0.8726(3) 0.3732(3)
C10 C 0.2336(5) 0.7906(3) 0.3213(2)
C11 C 0.1841(5) 0.8016(3) 0.2365(2)
C12 C 0.2623(5) 0.8741(3) 0.1941(2)
C13 C 0.2042(6) 0.8983(3) 0.1100(3)
C14 C 0.0786(5) 0.8392(3) 0.0722(3)
C15 C 0.0289(6) 0.8571(3) -0.0082(3)
C16 C -0.0843(6) 0.7975(3) -0.0457(3)
C17 C -0.1502(6) 0.7195(4) -0.0037(3)
C18 C -0.1038(6) 0.6989(3) 0.0760(3)
C19 C 0.0120(5) 0.7582(3) 0.1134(3)
C20 C 0.0625(5) 0.7389(3) 0.1996(3)
H1 H 0.5130 0.7479 0.5771
H2 H 0.4672 0.8808 0.6614
H3 H 0.2955 1.0063 0.6178
H4 H 0.1764 1.0016 0.4878
H5 H 0.0732 0.9111 -0.0359
H6 H -0.1172 0.8088 -0.0999
H7 H -0.2298 0.6788 -0.0292
H8 H -0.1493 0.6454 0.1038
Mn1A Mn 0.46960(10) 1.03978(6) 0.15179(5)
O4A O 0.6191(4) 0.4257(2) 0.2779(2)
O5A O 0.7312(4) 0.4686(2) 0.4240(2)
O9 O 0.1160(4) 0.4702(2) 0.2741(2)
O10 O 0.6494(4) 0.8340(2) 0.2942(2)
loop_
_geom_bond_atom_site_label_1
_geom_bond_atom_site_label_2
_geom_bond_site_symmetry_1
_geom_bond_site_symmetry_2
Mn1 O1 1_555 1_555
O1 C1 1_555 1_555
O2 Mn1 1_555 1_555
O3 C9 1_555 1_555
O4 C12 1_555 1_555
O5 C13 1_555 1_555
O6 C20 1_555 1_555
O7 Mn1 1_555 1_555
O8 Mn1 1_555 1_555
C1 C2 1_555 1_555
C2 O2 1_555 1_555
C3 C2 1_555 1_555
C4 C3 1_555 1_555
C5 C4 1_555 1_555
C6 C5 1_555 1_555
C7 C6 1_555 1_555
C8 C3 1_555 1_555
C9 C8 1_555 1_555
C10 C1 1_555 1_555
C11 C10 1_555 1_555
C12 C11 1_555 1_555
C13 C12 1_555 1_555
C14 C13 1_555 1_555
C15 C14 1_555 1_555
C16 C15 1_555 1_555
C17 C16 1_555 1_555
C18 C17 1_555 1_555
C19 C14 1_555 1_555
C20 C11 1_555 1_555
H1 C4 1_555 1_555
H2 C5 1_555 1_555
H3 C6 1_555 1_555
H4 C7 1_555 1_555
H5 C15 1_555 1_555
H6 C16 1_555 1_555
H7 C17 1_555 1_555
H8 C18 1_555 1_555
Mn1A O4 1_555 1_555
O4A Mn1 1_555 1_555
O5A Mn1 1_555 1_555
O5 Mn1A 1_555 1_555
C7 C8 1_555 1_555
C9 C10 1_555 1_555
C18 C19 1_555 1_555
C19 C20 1_555 1_555

#END
