
#######################################################################
#
#                 Cambridge Crystallographic Data Centre
#                                CCDC 
#
#######################################################################
#
# If this CIF has been generated from an entry in the Cambridge 
# Structural Database, then it will include bibliographic, chemical, 
# crystal, experimental, refinement or atomic coordinate data resulting 
# from the CCDC's data processing and validation procedures.
#
#######################################################################

data_YUYTIW
_symmetry_cell_setting           triclinic
_symmetry_space_group_name_H-M   'P -1'
_symmetry_Int_Tables_number      2
_space_group_name_Hall           '-P 1'
loop_
_symmetry_equiv_pos_site_id
_symmetry_equiv_pos_as_xyz
1 x,y,z
2 -x,-y,-z
_cell_length_a                   6.5746(13)
_cell_length_b                   9.824(2)
_cell_length_c                   10.996(2)
_cell_angle_alpha                99.95(3)
_cell_angle_beta                 106.80(3)
_cell_angle_gamma                106.22(3)
_cell_volume                     627.523
loop_
_atom_site_label
_atom_site_type_symbol
_atom_site_fract_x
_atom_site_fract_y
_atom_site_fract_z
Eu1 Eu 0.17687(7) 0.10219(4) 0.31107(4)
O1 O 0.3388(9) 0.1972(6) 0.5465(6)
O2 O 0.6596(10) 0.3854(6) 0.5920(6)
O3 O 0.5196(9) -0.0109(6) 0.6676(6)
O4 O 0.2087(9) -0.0399(6) 0.7194(5)
O5 O 0.0235(9) -0.1077(6) 0.1157(6)
O6 O -0.1072(11) -0.1731(7) -0.1069(6)
O7 O 0.0752(9) 0.3217(6) 0.3608(6)
H1 H -0.0073 0.3453 0.2989
H2 H 0.1224 0.3741 0.4402
O8 O 0.4890(9) 0.3137(6) 0.3371(6)
H3 H 0.5260 0.3271 0.2710
H4 H 0.5636 0.3755 0.4126
O9 O 0.0797(9) -0.1103(6) 0.4035(6)
H5 H 0.0135 -0.1973 0.3522
H6 H 0.1127 -0.0960 0.4864
N1 N 0.7328(12) 0.3955(8) 1.1764(7)
N2 N 0.8349(11) 0.5936(7) 1.1020(7)
C1 C 0.4049(13) 0.0363(9) 0.7280(8)
C2 C 0.5105(13) 0.1921(8) 0.8205(8)
C3 C 0.5534(13) 0.2077(9) 0.9536(9)
H7 H 0.5079 0.1261 0.9844
C4 C 0.6654(13) 0.3470(9) 1.0398(9)
C5 C 0.8303(13) 0.5400(9) 1.2059(9)
H8 H 0.8913 0.6002 1.2923
C6 C 0.7283(13) 0.4694(9) 0.9910(9)
C7 C 0.6885(12) 0.4556(9) 0.8586(8)
H9 H 0.7337 0.5373 0.8278
C8 C 0.5781(12) 0.3145(9) 0.7734(8)
C9 C 0.5234(14) 0.2993(9) 0.6277(8)
C10 C -0.0212(15) -0.0793(9) 0.0041(10)
Eu1A Eu 0.82313(7) -0.10219(4) 0.68893(4)
Eu1A_2 Eu -0.17687(7) -0.10219(4) 0.68893(4)
Eu1A_3 Eu -0.17687(7) -0.10219(4) -0.31107(4)
Eu1_2 Eu 1.17687(7) 0.10219(4) 0.31107(4)
O1A O 0.6612(9) -0.1972(6) 0.4535(6)
O2A O 0.3404(10) -0.3854(6) 0.4080(6)
O3A O 0.4804(9) 0.0109(6) 0.3324(6)
O4A O 0.7913(9) 0.0399(6) 0.2806(5)
O4A_2 O -0.2087(9) 0.0399(6) 0.2806(5)
O4_2 O 1.2087(9) -0.0399(6) 0.7194(5)
O5A O -0.0235(9) 0.1077(6) -0.1157(6)
O5A_2 O 0.9765(9) 0.1077(6) 0.8843(6)
O6A O 0.1072(11) 0.1731(7) 0.1069(6)
O6_2 O 0.8928(11) -0.1731(7) 0.8931(6)
O7A O 0.9248(9) -0.3217(6) 0.6392(6)
H1A H 1.0073 -0.3453 0.7011
H2A H 0.8776 -0.3741 0.5598
O8A O 0.5110(9) -0.3137(6) 0.6629(6)
H3A H 0.4740 -0.3271 0.7290
H4A H 0.4364 -0.3755 0.5874
O9A O 0.9203(9) 0.1103(6) 0.5965(6)
H5A H 0.9865 0.1973 0.6478
H6A H 0.8873 0.0960 0.5136
N1A N 0.2672(12) -0.3955(8) -0.1764(7)
N2A N 0.1651(11) -0.5936(7) -0.1020(7)
C1A C 0.5951(13) -0.0363(9) 0.2720(8)
C2A C 0.4895(13) -0.1921(8) 0.1795(8)
C3A C 0.4466(13) -0.2077(9) 0.0464(9)
H7A H 0.4921 -0.1261 0.0156
C4A C 0.3346(13) -0.3470(9) -0.0398(9)
C5A C 0.1697(13) -0.5400(9) -0.2059(9)
H8A H 0.1087 -0.6002 -0.2923
C6A C 0.2717(13) -0.4694(9) 0.0090(9)
C7A C 0.3115(12) -0.4556(9) 0.1414(8)
H9A H 0.2663 -0.5373 0.1722
C8A C 0.4219(12) -0.3145(9) 0.2266(8)
C9A C 0.4766(14) -0.2993(9) 0.3723(8)
C10A C 0.0212(15) 0.0793(9) -0.0041(10)
loop_
_geom_bond_atom_site_label_1
_geom_bond_atom_site_label_2
_geom_bond_site_symmetry_1
_geom_bond_site_symmetry_2
Eu1 O1 1_555 1_555
O1 C9 1_555 1_555
O2 C9 1_555 1_555
O3 C1 1_555 1_555
O4 C1 1_555 1_555
O5 Eu1 1_555 1_555
O6 C10 1_555 1_555
O7 Eu1 1_555 1_555
H1 O7 1_555 1_555
H2 O7 1_555 1_555
O8 Eu1 1_555 1_555
H3 O8 1_555 1_555
H4 O8 1_555 1_555
O9 Eu1 1_555 1_555
H5 O9 1_555 1_555
H6 O9 1_555 1_555
N1 C4 1_555 1_555
N2 C5 1_555 1_555
C1 C2 1_555 1_555
C2 C3 1_555 1_555
C3 H7 1_555 1_555
C4 C3 1_555 1_555
C5 N1 1_555 1_555
H8 C5 1_555 1_555
C6 N2 1_555 1_555
C7 C6 1_555 1_555
H9 C7 1_555 1_555
C8 C2 1_555 1_555
C9 C8 1_555 1_555
C10 O5 1_555 1_555
Eu1A O3 1_555 1_555
Eu1A_2 O4 1_555 1_555
Eu1A_3 O6 1_555 1_555
Eu1_2 O4A 1_555 1_555
O1A Eu1A 1_555 1_555
O2A C9A 1_555 1_555
O3A Eu1 1_555 1_555
O4A C1A 1_555 1_555
O4A_2 Eu1 1_555 1_555
O4_2 Eu1A 1_555 1_555
O5A Eu1A_3 1_555 1_555
O5A_2 Eu1A 1_555 1_555
O6A Eu1 1_555 1_555
O6_2 Eu1A 1_555 1_555
O7A Eu1A 1_555 1_555
H1A O7A 1_555 1_555
H2A O7A 1_555 1_555
O8A Eu1A 1_555 1_555
H3A O8A 1_555 1_555
H4A O8A 1_555 1_555
O9A Eu1A 1_555 1_555
H5A O9A 1_555 1_555
H6A O9A 1_555 1_555
N1A C4A 1_555 1_555
N2A C5A 1_555 1_555
C1A O3A 1_555 1_555
C2A C1A 1_555 1_555
C3A C2A 1_555 1_555
H7A C3A 1_555 1_555
C4A C3A 1_555 1_555
C5A N1A 1_555 1_555
H8A C5A 1_555 1_555
C6A N2A 1_555 1_555
C7A C6A 1_555 1_555
H9A C7A 1_555 1_555
C8A C2A 1_555 1_555
C9A O1A 1_555 1_555
C10A C10 1_555 1_555
C4 C6 1_555 1_555
C7 C8 1_555 1_555
O5A C10A 1_555 1_555
O6A C10A 1_555 1_555
C4A C6A 1_555 1_555
C7A C8A 1_555 1_555
C8A C9A 1_555 1_555

#END
