
#######################################################################
#
#                 Cambridge Crystallographic Data Centre
#                                CCDC 
#
#######################################################################
#
# If this CIF has been generated from an entry in the Cambridge 
# Structural Database, then it will include bibliographic, chemical, 
# crystal, experimental, refinement or atomic coordinate data resulting 
# from the CCDC's data processing and validation procedures.
#
#######################################################################

data_YUYVUK
_symmetry_cell_setting           triclinic
_symmetry_space_group_name_H-M   'P -1'
_symmetry_Int_Tables_number      2
_space_group_name_Hall           '-P 1'
loop_
_symmetry_equiv_pos_site_id
_symmetry_equiv_pos_as_xyz
1 x,y,z
2 -x,-y,-z
_cell_length_a                   11.6759(14)
_cell_length_b                   11.9493(15)
_cell_length_c                   12.1571(15)
_cell_angle_alpha                117.440(2)
_cell_angle_beta                 97.277(2)
_cell_angle_gamma                101.006(2)
_cell_volume                     1432.08
loop_
_atom_site_label
_atom_site_type_symbol
_atom_site_fract_x
_atom_site_fract_y
_atom_site_fract_z
Hg1 Hg 0.755431(18) 0.78958(2) 0.21777(2)
I1 I 0.82100(4) 0.60717(4) 0.28138(5)
I2 I 0.59725(4) 0.89804(5) 0.35906(6)
P1 P 0.95878(11) 0.95268(12) 0.29780(12)
P2 P 0.63477(11) 0.65291(13) -0.00963(13)
C1 C 0.9636(5) 1.1166(5) 0.3234(5)
C2 C 1.0545(5) 0.8950(5) 0.1892(5)
C3 C 1.0352(4) 0.9743(5) 0.4496(5)
H1 H 1.0449 0.8907 0.4371
H2 H 1.1147 1.0356 0.4791
C4 C 0.4905(5) 0.5505(5) -0.0190(6)
H3 H 0.4485 0.6062 0.0372
H4 H 0.4407 0.5057 -0.1057
C5 C 0.7076(5) 0.5436(5) -0.1182(6)
C6 C 0.5933(5) 0.7467(6) -0.0826(6)
C7 C 0.8291(6) 0.5615(6) -0.0825(7)
H5 H 0.8727 0.6238 0.0006
C8 C 1.0715(6) 1.2035(6) 0.3429(7)
H6 H 1.1424 1.1791 0.3446
C9 C 1.0273(6) 0.8901(7) 0.0737(6)
H7 H 0.9654 0.9228 0.0563
C10 C 0.8594(7) 1.1567(7) 0.3274(7)
H8 H 0.7869 1.1010 0.3183
C11 C 1.1462(7) 0.8480(8) 0.2138(8)
H9 H 1.1678 0.8532 0.2927
C12 C 0.6425(7) 0.4455(7) -0.2419(7)
H10 H 0.5598 0.4300 -0.2673
C13 C 1.0914(7) 0.8367(9) -0.0182(7)
H11 H 1.0743 0.8368 -0.0950
C14 C 0.8650(8) 1.2823(7) 0.3452(7)
H12 H 0.7956 1.3099 0.3472
C15 C 0.6758(8) 0.7981(10) -0.1291(11)
H13 H 0.7516 0.7846 -0.1232
C16 C 0.9706(9) 1.3637(7) 0.3595(7)
H14 H 0.9728 1.4460 0.3691
C17 C 1.0736(8) 1.3266(7) 0.3598(8)
H15 H 1.1459 1.3842 0.3715
C18 C 1.1768(8) 0.7859(8) 0.0049(8)
H16 H 1.2161 0.7456 -0.0582
C19 C 0.8239(9) 0.3938(8) -0.2895(9)
H17 H 0.8635 0.3441 -0.3475
C20 C 0.7041(9) 0.3718(8) -0.3261(8)
H18 H 0.6620 0.3064 -0.4086
C21 C 0.8867(7) 0.4866(8) -0.1705(9)
H19 H 0.9693 0.5008 -0.1469
C22 C 1.2078(9) 0.7918(10) 0.1197(10)
H20 H 1.2698 0.7586 0.1356
C23 C 0.4885(8) 0.7752(11) -0.0845(12)
H21 H 0.4327 0.7426 -0.0506
C24 C 0.5399(9) 0.8947(10) -0.1905(11)
H22 H 0.5199 0.9403 -0.2314
C25 C 0.4600(9) 0.8518(13) -0.1354(14)
H23 H 0.3878 0.8737 -0.1322
C26 C 0.6472(11) 0.8701(12) -0.1849(13)
H24 H 0.7031 0.9021 -0.2191
Hg1A Hg 0.244569(18) 0.21042(2) -0.21777(2)
Hg1A_2 Hg 1.244569(18) 1.21042(2) 0.78223(2)
I1A I 0.17900(4) 0.39283(4) -0.28138(5)
I2A I 0.40275(4) 0.10196(5) -0.35906(6)
P1A P 1.04122(11) 1.04732(12) 0.70220(12)
P1A_2 P 0.04122(11) 0.04732(12) -0.29780(12)
P2A P 0.36523(11) 0.34709(13) 0.00963(13)
C1A C 1.0364(5) 0.8834(5) 0.6766(5)
C2A C 0.9455(5) 1.1050(5) 0.8108(5)
C3A C 0.9648(4) 1.0257(5) 0.5504(5)
H1A H 0.9551 1.1093 0.5629
H2A H 0.8853 0.9644 0.5209
C4A C 0.5095(5) 0.4495(5) 0.0190(6)
H3A H 0.5515 0.3938 -0.0372
H4A H 0.5593 0.4943 0.1057
C5A C 0.2924(5) 0.4564(5) 0.1182(6)
C6A C 0.4067(5) 0.2533(6) 0.0826(6)
C7A C 0.1709(6) 0.4385(6) 0.0825(7)
H5A H 0.1273 0.3762 -0.0006
C8A C 0.9285(6) 0.7965(6) 0.6571(7)
H6A H 0.8576 0.8209 0.6554
C9A C 0.9727(6) 1.1099(7) 0.9263(6)
H7A H 1.0346 1.0772 0.9437
C10A C 1.1406(7) 0.8433(7) 0.6726(7)
H8A H 1.2131 0.8990 0.6817
C11A C 0.8538(7) 1.1520(8) 0.7862(8)
H9A H 0.8322 1.1468 0.7073
C12A C 0.3575(7) 0.5545(7) 0.2419(7)
H10A H 0.4402 0.5700 0.2673
C13A C 0.9086(7) 1.1633(9) 1.0182(7)
H11A H 0.9257 1.1632 1.0950
C14A C 1.1350(8) 0.7177(7) 0.6548(7)
H12A H 1.2044 0.6901 0.6528
C15A C 0.3242(8) 0.2019(10) 0.1291(11)
H13A H 0.2484 0.2154 0.1232
C16A C 1.0294(9) 0.6363(7) 0.6405(7)
H14A H 1.0272 0.5540 0.6309
C17A C 0.9264(8) 0.6734(7) 0.6402(8)
H15A H 0.8541 0.6158 0.6285
C18A C 0.8232(8) 1.2141(8) 0.9951(8)
H16A H 0.7839 1.2544 1.0582
C19A C 0.1761(9) 0.6062(8) 0.2895(9)
H17A H 0.1365 0.6559 0.3475
C20A C 0.2959(9) 0.6282(8) 0.3261(8)
H18A H 0.3380 0.6936 0.4086
C21A C 0.1133(7) 0.5134(8) 0.1705(9)
H19A H 0.0307 0.4992 0.1469
C22A C 0.7922(9) 1.2082(10) 0.8803(10)
H20A H 0.7302 1.2414 0.8644
C23A C 0.5115(8) 0.2248(11) 0.0845(12)
H21A H 0.5673 0.2574 0.0506
C24A C 0.4601(9) 0.1053(10) 0.1905(11)
H22A H 0.4801 0.0597 0.2314
C25A C 0.5400(9) 0.1482(13) 0.1354(14)
H23A H 0.6122 0.1263 0.1322
C26A C 0.3528(11) 0.1299(12) 0.1849(13)
H24A H 0.2969 0.0979 0.2191
O1 O 0.4043(6) 0.4721(15) 0.5381(10)
loop_
_geom_bond_atom_site_label_1
_geom_bond_atom_site_label_2
_geom_bond_site_symmetry_1
_geom_bond_site_symmetry_2
Hg1 I1 1_555 1_555
I2 Hg1 1_555 1_555
P1 Hg1 1_555 1_555
P2 Hg1 1_555 1_555
C1 P1 1_555 1_555
C2 P1 1_555 1_555
C3 P1 1_555 1_555
H1 C3 1_555 1_555
H2 C3 1_555 1_555
C4 P2 1_555 1_555
H3 C4 1_555 1_555
H4 C4 1_555 1_555
C5 P2 1_555 1_555
C6 P2 1_555 1_555
C7 C5 1_555 1_555
H5 C7 1_555 1_555
C8 C1 1_555 1_555
H6 C8 1_555 1_555
C9 C2 1_555 1_555
H7 C9 1_555 1_555
C10 C1 1_555 1_555
H8 C10 1_555 1_555
C11 C2 1_555 1_555
H9 C11 1_555 1_555
C12 C5 1_555 1_555
H10 C12 1_555 1_555
C13 C9 1_555 1_555
H11 C13 1_555 1_555
C14 C10 1_555 1_555
H12 C14 1_555 1_555
C15 C6 1_555 1_555
H13 C15 1_555 1_555
C16 C14 1_555 1_555
H14 C16 1_555 1_555
C17 C8 1_555 1_555
H15 C17 1_555 1_555
C18 C13 1_555 1_555
H16 C18 1_555 1_555
C19 H17 1_555 1_555
C20 C12 1_555 1_555
H18 C20 1_555 1_555
C21 C7 1_555 1_555
H19 C21 1_555 1_555
C22 C11 1_555 1_555
H20 C22 1_555 1_555
C23 C6 1_555 1_555
H21 C23 1_555 1_555
C24 H22 1_555 1_555
C25 C23 1_555 1_555
H23 C25 1_555 1_555
C26 C15 1_555 1_555
H24 C26 1_555 1_555
Hg1A I1A 1_555 1_555
Hg1A_2 P1A 1_555 1_555
I2A Hg1A 1_555 1_555
P1A C1A 1_555 1_555
P1A_2 Hg1A 1_555 1_555
P2A Hg1A 1_555 1_555
C1A C8A 1_555 1_555
C2A P1A 1_555 1_555
C3A C3 1_555 1_555
H1A C3A 1_555 1_555
H2A C3A 1_555 1_555
C4A C4 1_555 1_555
H3A C4A 1_555 1_555
H4A C4A 1_555 1_555
C5A P2A 1_555 1_555
C6A P2A 1_555 1_555
C7A C5A 1_555 1_555
H5A C7A 1_555 1_555
C8A H6A 1_555 1_555
C9A C2A 1_555 1_555
H7A C9A 1_555 1_555
C10A C1A 1_555 1_555
H8A C10A 1_555 1_555
C11A C2A 1_555 1_555
H9A C11A 1_555 1_555
C12A C5A 1_555 1_555
H10A C12A 1_555 1_555
C13A C9A 1_555 1_555
H11A C13A 1_555 1_555
C14A C10A 1_555 1_555
H12A C14A 1_555 1_555
C15A C6A 1_555 1_555
H13A C15A 1_555 1_555
C16A C14A 1_555 1_555
H14A C16A 1_555 1_555
C17A C8A 1_555 1_555
H15A C17A 1_555 1_555
C18A C13A 1_555 1_555
H16A C18A 1_555 1_555
C19A H17A 1_555 1_555
C20A C12A 1_555 1_555
H18A C20A 1_555 1_555
C21A C7A 1_555 1_555
H19A C21A 1_555 1_555
C22A C11A 1_555 1_555
H20A C22A 1_555 1_555
C23A C6A 1_555 1_555
H21A C23A 1_555 1_555
C24A H22A 1_555 1_555
C25A C23A 1_555 1_555
H23A C25A 1_555 1_555
C26A C15A 1_555 1_555
H24A C26A 1_555 1_555
C16 C17 1_555 1_555
C18 C22 1_555 1_555
C19 C20 1_555 1_555
C19 C21 1_555 1_555
C24 C25 1_555 1_555
C24 C26 1_555 1_555
P1A C3A 1_555 1_555
P2A C4A 1_555 1_555
C16A C17A 1_555 1_555
C18A C22A 1_555 1_555
C19A C20A 1_555 1_555
C19A C21A 1_555 1_555
C24A C25A 1_555 1_555
C24A C26A 1_555 1_555

#END
