
#######################################################################
#
#                 Cambridge Crystallographic Data Centre
#                                CCDC 
#
#######################################################################
#
# If this CIF has been generated from an entry in the Cambridge 
# Structural Database, then it will include bibliographic, chemical, 
# crystal, experimental, refinement or atomic coordinate data resulting 
# from the CCDC's data processing and validation procedures.
#
#######################################################################

data_YUYVIY
_symmetry_cell_setting           orthorhombic
_symmetry_space_group_name_H-M   'P b c a'
_symmetry_Int_Tables_number      61
_space_group_name_Hall           '-P 2ac 2ab'
loop_
_symmetry_equiv_pos_site_id
_symmetry_equiv_pos_as_xyz
1 x,y,z
2 1/2-x,-y,1/2+z
3 1/2+x,1/2-y,-z
4 -x,1/2+y,1/2-z
5 -x,-y,-z
6 1/2+x,y,1/2-z
7 1/2-x,1/2+y,z
8 x,1/2-y,1/2+z
_cell_length_a                   10.710(9)
_cell_length_b                   15.149(13)
_cell_length_c                   34.47(3)
_cell_angle_alpha                90
_cell_angle_beta                 90
_cell_angle_gamma                90
_cell_volume                     5592.61
loop_
_atom_site_label
_atom_site_type_symbol
_atom_site_fract_x
_atom_site_fract_y
_atom_site_fract_z
Zn1 Zn -0.24283(5) -0.06214(4) 0.118829(17)
Br1 Br -0.41422(5) -0.09102(5) 0.163581(19)
Br2 Br -0.30034(7) -0.02853(5) 0.052585(18)
P1 P -0.11591(11) 0.07146(9) 0.13716(4)
P2 P -0.39194(11) 0.30300(9) 0.11941(4)
C1 C 0.0436(4) 0.0684(3) 0.11479(15)
C2 C 0.0602(5) 0.0974(5) 0.07625(17)
H1 H -0.0062 0.1232 0.0631
C3 C 0.1782(6) 0.0874(5) 0.0571(2)
H2 H 0.1889 0.1068 0.0318
C4 C 0.2777(6) 0.0480(5) 0.0774(3)
H3 H 0.3546 0.0413 0.0653
C5 C 0.2626(5) 0.0190(5) 0.1154(2)
H4 H 0.3291 -0.0069 0.1285
C6 C 0.1452(5) 0.0291(4) 0.13410(18)
H5 H 0.1354 0.0094 0.1595
C7 C -0.0906(4) 0.0941(3) 0.18939(15)
C8 C 0.0087(5) 0.1459(4) 0.20323(18)
H6 H 0.0633 0.1718 0.1856
C9 C 0.0269(6) 0.1592(5) 0.24316(19)
H7 H 0.0932 0.1940 0.2516
C10 C -0.0526(6) 0.1214(5) 0.27016(19)
H8 H -0.0391 0.1301 0.2965
C11 C -0.1533(6) 0.0701(4) 0.25763(17)
H9 H -0.2078 0.0452 0.2756
C12 C -0.1716(5) 0.0563(4) 0.21749(15)
H10 H -0.2383 0.0217 0.2093
C13 C -0.1862(4) 0.1769(3) 0.11732(14)
H11 H -0.1286 0.2253 0.1218
H12 H -0.1975 0.1709 0.0895
C14 C -0.3153(4) 0.1995(3) 0.13658(14)
H13 H -0.3031 0.2040 0.1644
H14 H -0.3719 0.1506 0.1320
C15 C -0.5215(4) 0.3158(4) 0.15507(16)
C16 C -0.4910(6) 0.3520(4) 0.19187(17)
H15 H -0.4084 0.3660 0.1974
C17 C -0.5827(8) 0.3669(5) 0.2200(2)
H16 H -0.5608 0.3900 0.2441
C18 C -0.7070(9) 0.3472(5) 0.2119(3)
H17 H -0.7680 0.3574 0.2305
C19 C -0.7409(6) 0.3120(5) 0.1756(3)
H18 H -0.8242 0.2996 0.1703
C20 C -0.6480(5) 0.2950(4) 0.1468(2)
H19 H -0.6700 0.2708 0.1229
C21 C -0.4671(5) 0.2793(4) 0.07222(15)
C22 C -0.5406(6) 0.3470(4) 0.05493(18)
H20 H -0.5477 0.4015 0.0672
C23 C -0.6033(7) 0.3325(5) 0.01916(19)
H21 H -0.6517 0.3768 0.0081
C24 C -0.5913(7) 0.2507(5) 0.00078(19)
H22 H -0.6347 0.2398 -0.0221
C25 C -0.5142(7) 0.1846(5) 0.01656(18)
H23 H -0.5021 0.1318 0.0033
C26 C -0.4555(5) 0.1987(4) 0.05267(19)
H24 H -0.4082 0.1537 0.0637
Zn1F Zn -0.25717(5) 0.43786(4) 0.118829(17)
P2F P -0.10806(11) -0.19700(9) 0.11941(4)
loop_
_geom_bond_atom_site_label_1
_geom_bond_atom_site_label_2
_geom_bond_site_symmetry_1
_geom_bond_site_symmetry_2
Zn1 Br1 1_555 1_555
Br2 Zn1 1_555 1_555
P1 Zn1 1_555 1_555
P2 C14 1_555 1_555
C1 P1 1_555 1_555
C2 C1 1_555 1_555
H1 C2 1_555 1_555
C3 C2 1_555 1_555
H2 C3 1_555 1_555
C4 C3 1_555 1_555
H3 C4 1_555 1_555
C5 C4 1_555 1_555
H4 C5 1_555 1_555
C6 C1 1_555 1_555
H5 C6 1_555 1_555
C7 P1 1_555 1_555
C8 C7 1_555 1_555
H6 C8 1_555 1_555
C9 C8 1_555 1_555
H7 C9 1_555 1_555
C10 C9 1_555 1_555
H8 C10 1_555 1_555
C11 C10 1_555 1_555
H9 C11 1_555 1_555
C12 C7 1_555 1_555
H10 C12 1_555 1_555
C13 P1 1_555 1_555
H11 C13 1_555 1_555
H12 C13 1_555 1_555
C14 C13 1_555 1_555
H13 C14 1_555 1_555
H14 C14 1_555 1_555
C15 P2 1_555 1_555
C16 C15 1_555 1_555
H15 C16 1_555 1_555
C17 C16 1_555 1_555
H16 C17 1_555 1_555
C18 C17 1_555 1_555
H17 C18 1_555 1_555
C19 C18 1_555 1_555
H18 C19 1_555 1_555
C20 C15 1_555 1_555
H19 C20 1_555 1_555
C21 P2 1_555 1_555
C22 C21 1_555 1_555
H20 C22 1_555 1_555
C23 C22 1_555 1_555
H21 C23 1_555 1_555
C24 C23 1_555 1_555
H22 C24 1_555 1_555
C25 C24 1_555 1_555
H23 C25 1_555 1_555
C26 C21 1_555 1_555
H24 C26 1_555 1_555
Zn1F P2 1_555 1_555
P2F Zn1 1_555 1_555
C5 C6 1_555 1_555
C11 C12 1_555 1_555
C19 C20 1_555 1_555
C25 C26 1_555 1_555

#END
