
#######################################################################
#
#                 Cambridge Crystallographic Data Centre
#                                CCDC 
#
#######################################################################
#
# If this CIF has been generated from an entry in the Cambridge 
# Structural Database, then it will include bibliographic, chemical, 
# crystal, experimental, refinement or atomic coordinate data resulting 
# from the CCDC's data processing and validation procedures.
#
#######################################################################

data_YUZKOU
_symmetry_cell_setting           monoclinic
_symmetry_space_group_name_H-M   'C 2/m'
_symmetry_Int_Tables_number      12
_space_group_name_Hall           '-C 2y'
loop_
_symmetry_equiv_pos_site_id
_symmetry_equiv_pos_as_xyz
1 x,y,z
2 -x,y,-z
3 1/2+x,1/2+y,z
4 1/2-x,1/2+y,-z
5 -x,-y,-z
6 x,-y,z
7 1/2-x,1/2-y,-z
8 1/2+x,1/2-y,z
_cell_length_a                   11.401(6)
_cell_length_b                   28.72(1)
_cell_length_c                   6.709(3)
_cell_angle_alpha                90
_cell_angle_beta                 113.897(2)
_cell_angle_gamma                90
_cell_volume                     2008.45
loop_
_atom_site_label
_atom_site_type_symbol
_atom_site_fract_x
_atom_site_fract_y
_atom_site_fract_z
Co1 Co 0.0000 0.0000 0.0000
Fe1 Fe 0.0000 0.129896(11) 0.5000
N1 N 0.06032(15) 0.18229(5) 0.3742(2)
C1 C 0.03419(18) 0.22525(6) 0.4276(3)
C2 C 0.0700(2) 0.26501(7) 0.3508(3)
H1 H 0.0491 0.2943 0.3861
C3 C 0.1369(2) 0.26076(8) 0.2215(3)
H2 H 0.1620 0.2871 0.1682
C4 C 0.1664(2) 0.21703(7) 0.1718(3)
H3 H 0.2131 0.2135 0.0868
C5 C 0.12636(19) 0.17854(7) 0.2487(3)
H4 H 0.1455 0.1491 0.2128
C6 C -0.1663(2) 0.12927(6) 0.2517(3)
N2 N -0.26186(19) 0.12984(7) 0.1028(3)
C7 C 0.04569(16) 0.08104(6) 0.3515(3)
N3 N 0.05898(15) 0.05183(5) 0.2468(2)
N4 N 0.18730(19) 0.0000 -0.0067(3)
C8 C 0.2068(2) 0.0000 -0.1867(4)
H5 H 0.1356 0.0000 -0.3192
C9 C 0.3266(3) 0.0000 -0.1902(4)
H6 H 0.3339 0.0000 -0.3234
C10 C 0.4343(3) 0.0000 -0.0030(5)
C11 C 0.4125(6) -0.0099(11) 0.1855(9)
C12 C 0.2920(9) -0.0210(15) 0.1715(15)
Co1_2 Co 1.0000 0.0000 0.0000
Fe1_2 Fe 0.0000 0.129896(11) -0.5000
Fe1D Fe 0.0000 -0.129896(11) -0.5000
Fe1D_2 Fe 0.0000 -0.129896(11) 0.5000
N1A N -0.06032(15) 0.18229(5) 0.6258(2)
N1A_2 N -0.06032(15) 0.18229(5) -0.3742(2)
N1_2 N 0.06032(15) 0.18229(5) -0.6258(2)
C1A C -0.03419(18) 0.22525(6) 0.5724(3)
C1A_2 C -0.03419(18) 0.22525(6) -0.4276(3)
C1_2 C 0.03419(18) 0.22525(6) -0.5724(3)
C2A C -0.0700(2) 0.26501(7) 0.6492(3)
C2A_2 C -0.0700(2) 0.26501(7) -0.3508(3)
C2_2 C 0.0700(2) 0.26501(7) -0.6492(3)
H1A H -0.0491 0.2943 0.6139
H1A_2 H -0.0491 0.2943 -0.3861
H1_2 H 0.0491 0.2943 -0.6139
C3A C -0.1369(2) 0.26076(8) 0.7785(3)
C3A_2 C -0.1369(2) 0.26076(8) -0.2215(3)
C3_2 C 0.1369(2) 0.26076(8) -0.7785(3)
H2A H -0.1620 0.2871 0.8318
H2A_2 H -0.1620 0.2871 -0.1682
H2_2 H 0.1620 0.2871 -0.8318
C4A C -0.1664(2) 0.21703(7) 0.8282(3)
C4A_2 C -0.1664(2) 0.21703(7) -0.1718(3)
C4_2 C 0.1664(2) 0.21703(7) -0.8282(3)
H3A H -0.2131 0.2135 0.9132
H3A_2 H -0.2131 0.2135 -0.0868
H3_2 H 0.2131 0.2135 -0.9132
C5A C -0.12636(19) 0.17854(7) 0.7513(3)
C5A_2 C -0.12636(19) 0.17854(7) -0.2487(3)
C5_2 C 0.12636(19) 0.17854(7) -0.7513(3)
H4A H -0.1455 0.1491 0.7872
H4A_2 H -0.1455 0.1491 -0.2128
H4_2 H 0.1455 0.1491 -0.7872
C6A C 0.1663(2) 0.12927(6) 0.7483(3)
C6A_2 C 0.1663(2) 0.12927(6) -0.2517(3)
C6_2 C -0.1663(2) 0.12927(6) -0.7483(3)
N2A N 0.26186(19) 0.12984(7) 0.8972(3)
N2A_2 N 0.26186(19) 0.12984(7) -0.1028(3)
N2_2 N -0.26186(19) 0.12984(7) -0.8972(3)
C7A C -0.04569(16) 0.08104(6) -0.3515(3)
C7D C -0.04569(16) -0.08104(6) -0.3515(3)
C7E C 0.04569(16) -0.08104(6) 0.3515(3)
C7A_2 C -0.04569(16) 0.08104(6) 0.6485(3)
C7_2 C 0.04569(16) 0.08104(6) -0.6485(3)
N3A N -0.05898(15) 0.05183(5) -0.2468(2)
N3D N -0.05898(15) -0.05183(5) -0.2468(2)
N3E N 0.05898(15) -0.05183(5) 0.2468(2)
N4A N 0.81270(19) 0.0000 0.0067(3)
N4A_2 N -0.18730(19) 0.0000 0.0067(3)
C8A C 0.7932(2) 0.0000 0.1867(4)
H5A H 0.8644 0.0000 0.3192
C9A C 0.6734(3) 0.0000 0.1902(4)
H6A H 0.6661 0.0000 0.3234
C10A C 0.5657(3) 0.0000 0.0030(5)
C11A C 0.5875(6) -0.0099(11) -0.1855(9)
C11D C 0.5875(6) 0.0099(11) -0.1855(9)
C11E C 0.4125(6) 0.0099(11) 0.1855(9)
C12A C 0.7080(9) -0.0210(15) -0.1715(15)
C12D C 0.7080(9) 0.0210(15) -0.1715(15)
C12E C 0.2920(9) 0.0210(15) 0.1715(15)
O1 O 0.4504(8) 0.13597(18) 0.3567(9)
O2? O 0.5186(5) 0.1126(2) 0.2417(10)
C13? C 0.2896(6) 0.0084(15) 0.1759(11)
C14? C 0.4150(10) -0.0238(15) 0.1816(17)
loop_
_geom_bond_atom_site_label_1
_geom_bond_atom_site_label_2
_geom_bond_site_symmetry_1
_geom_bond_site_symmetry_2
Co1 N3 1_555 1_555
Fe1 N1 1_555 1_555
N1 C1 1_555 1_555
C1 C2 1_555 1_555
C2 H1 1_555 1_555
C3 C2 1_555 1_555
H2 C3 1_555 1_555
C4 C3 1_555 1_555
H3 C4 1_555 1_555
C5 N1 1_555 1_555
H4 C5 1_555 1_555
C6 Fe1 1_555 1_555
N2 C6 1_555 1_555
C7 Fe1 1_555 1_555
N3 C7 1_555 1_555
N4 Co1 1_555 1_555
C8 N4 1_555 1_555
H5 C8 1_555 1_555
C9 C8 1_555 1_555
H6 C9 1_555 1_555
C10 C9 1_555 1_555
C11 C10 1_555 1_555
C12 N4 1_555 1_555
Co1_2 N4A 1_555 1_555
Fe1_2 N1A_2 1_555 1_555
Fe1D C7D 1_555 1_555
Fe1D_2 C7E 1_555 1_555
N1A Fe1 1_555 1_555
N1A_2 C1A_2 1_555 1_555
N1_2 Fe1_2 1_555 1_555
C1A C1 1_555 1_555
C1A_2 C1_2 1_555 1_555
C1_2 N1_2 1_555 1_555
C2A C1A 1_555 1_555
C2A_2 C1A_2 1_555 1_555
C2_2 C1_2 1_555 1_555
H1A C2A 1_555 1_555
H1A_2 C2A_2 1_555 1_555
H1_2 C2_2 1_555 1_555
C3A C2A 1_555 1_555
C3A_2 C2A_2 1_555 1_555
C3_2 C2_2 1_555 1_555
H2A C3A 1_555 1_555
H2A_2 C3A_2 1_555 1_555
H2_2 C3_2 1_555 1_555
C4A C3A 1_555 1_555
C4A_2 C3A_2 1_555 1_555
C4_2 C3_2 1_555 1_555
H3A C4A 1_555 1_555
H3A_2 C4A_2 1_555 1_555
H3_2 C4_2 1_555 1_555
C5A N1A 1_555 1_555
C5A_2 N1A_2 1_555 1_555
C5_2 N1_2 1_555 1_555
H4A C5A 1_555 1_555
H4A_2 C5A_2 1_555 1_555
H4_2 C5_2 1_555 1_555
C6A Fe1 1_555 1_555
C6A_2 Fe1_2 1_555 1_555
C6_2 Fe1_2 1_555 1_555
N2A C6A 1_555 1_555
N2A_2 C6A_2 1_555 1_555
N2_2 C6_2 1_555 1_555
C7A Fe1_2 1_555 1_555
C7D N3D 1_555 1_555
C7E N3E 1_555 1_555
C7A_2 Fe1 1_555 1_555
C7_2 Fe1_2 1_555 1_555
N3A Co1 1_555 1_555
N3D Co1 1_555 1_555
N3E Co1 1_555 1_555
N4A C8A 1_555 1_555
N4A_2 Co1 1_555 1_555
C8A H5A 1_555 1_555
C9A C8A 1_555 1_555
H6A C9A 1_555 1_555
C10A C10 1_555 1_555
C11A C10A 1_555 1_555
C11D C10A 1_555 1_555
C11E C10 1_555 1_555
C12A N4A 1_555 1_555
C12D N4A 1_555 1_555
C12E N4 1_555 1_555
C4 C5 1_555 1_555
C11 C12 1_555 1_555
C11 C11E 1_555 1_555
C11 C12E 1_555 1_555
C12 C11E 1_555 1_555
C12 C12E 1_555 1_555
N1A C1A 1_555 1_555
C4A C5A 1_555 1_555
C4A_2 C5A_2 1_555 1_555
C4_2 C5_2 1_555 1_555
C7A N3A 1_555 1_555
C9A C10A 1_555 1_555
C11A C11D 1_555 1_555
C11A C12A 1_555 1_555
C11A C12D 1_555 1_555
C11D C12A 1_555 1_555
C11D C12D 1_555 1_555
C11E C12E 1_555 1_555
C12A C12D 1_555 1_555

#END
