
#######################################################################
#
#                 Cambridge Crystallographic Data Centre
#                                CCDC 
#
#######################################################################
#
# If this CIF has been generated from an entry in the Cambridge 
# Structural Database, then it will include bibliographic, chemical, 
# crystal, experimental, refinement or atomic coordinate data resulting 
# from the CCDC's data processing and validation procedures.
#
#######################################################################

data_YUZWOG
_symmetry_cell_setting           monoclinic
_symmetry_space_group_name_H-M   'C 2/c'
_symmetry_Int_Tables_number      15
_space_group_name_Hall           '-C 2yn'
loop_
_symmetry_equiv_pos_site_id
_symmetry_equiv_pos_as_xyz
1 x,y,z
2 -x,y,1/2-z
3 1/2+x,1/2+y,z
4 1/2-x,1/2+y,1/2-z
5 -x,-y,-z
6 x,-y,1/2+z
7 1/2-x,1/2-y,-z
8 1/2+x,1/2-y,1/2+z
_cell_length_a                   22.587(4)
_cell_length_b                   14.078(3)
_cell_length_c                   11.240(2)
_cell_angle_alpha                90
_cell_angle_beta                 113.424(7)
_cell_angle_gamma                90
_cell_volume                     3279.55
loop_
_atom_site_label
_atom_site_type_symbol
_atom_site_fract_x
_atom_site_fract_y
_atom_site_fract_z
Zn1 Zn 0.0000 0.304294(16) -0.2500
Zn2 Zn 0.0000 0.097600(17) -0.2500
O1 O 0.08237(6) 0.13458(9) -0.08989(12)
O2 O 0.07142(7) 0.29009(8) -0.07128(13)
O3 O 0.44824(6) 0.38509(8) 0.35738(12)
O4 O 0.43196(6) 0.22872(9) 0.33035(12)
N1 N 0.0000 0.95246(14) -0.2500
N2 N 0.0000 0.45138(14) -0.2500
C1 C 0.19889(9) 0.49281(13) 0.2562(2)
H1 H 0.1552 0.5120 0.2018
H2 H 0.2198 0.5450 0.3139
C2 C 0.23572(8) 0.46913(12) 0.17223(18)
H3 H 0.2368 0.5254 0.1217
C3 C 0.30536(8) 0.43913(12) 0.25733(17)
H4 H 0.3285 0.4250 0.2029
H5 H 0.3275 0.4907 0.3150
C4 C 0.30448(7) 0.35100(11) 0.33712(14)
C5 C 0.26673(8) 0.37654(13) 0.42033(16)
H6 H 0.2662 0.3223 0.4731
H7 H 0.2882 0.4285 0.4780
C6 C 0.19742(9) 0.40541(13) 0.33517(17)
H8 H 0.1741 0.4204 0.3901
C7 C 0.37260(9) 0.31843(12) 0.42896(16)
H9 H 0.3894 0.3634 0.5000
H10 H 0.3689 0.2574 0.4655
C8 C 0.42116(8) 0.30910(11) 0.36699(16)
C9 C 0.02040(8) 0.90372(11) -0.32913(15)
H11 H 0.0353 0.9372 -0.3830
C10 C 0.02008(9) 0.80569(10) -0.33352(17)
H12 H 0.0331 0.7740 -0.3916
C11 C 0.0000 0.75483(15) -0.2500
C12 C 0.0000 0.64923(16) -0.2500
C13 C -0.02238(8) 0.50019(11) -0.36098(16)
H13 H -0.0388 0.4667 -0.4387
C14 C -0.02222(9) 0.59820(11) -0.36556(16)
H14 H -0.0368 0.6297 -0.4448
C15 C 0.26845(8) 0.27081(12) 0.24439(15)
H15 H 0.2675 0.2152 0.2945
H16 H 0.2916 0.2542 0.1908
C16 C 0.19886(8) 0.29884(10) 0.15642(16)
C17 C 0.20165(8) 0.38826(12) 0.07925(16)
H17 H 0.2247 0.3738 0.0248
H18 H 0.1582 0.4077 0.0235
C18 C 0.16313(8) 0.32431(13) 0.24278(17)
H19 H 0.1193 0.3432 0.1890
H20 H 0.1612 0.2690 0.2926
C19 C 0.10223(8) 0.21314(11) -0.03804(16)
C20 C 0.16915(9) 0.21181(12) 0.07037(19)
H21 H 0.1988 0.1937 0.0313
H22 H 0.1695 0.1605 0.1282
Zn1F Zn 0.5000 0.195706(16) 0.2500
Zn1F_2 Zn -0.5000 0.195706(16) -0.7500
Zn2F Zn 0.5000 0.402400(17) 0.2500
Zn2_2 Zn 0.0000 1.097600(17) -0.2500
Zn2F_2 Zn -0.5000 0.402400(17) -0.7500
O1A O -0.08237(6) 0.13458(9) -0.41011(12)
O2A O -0.07142(7) 0.29009(8) -0.42872(13)
O3A O -0.44824(6) 0.38509(8) -0.85738(12)
O3F O 0.05176(6) 0.11491(8) -0.35738(12)
O3G O -0.05176(6) 0.11491(8) -0.14262(12)
O4A O -0.43196(6) 0.22872(9) -0.83035(12)
O4F O 0.06804(6) 0.27128(9) -0.33035(12)
O4G O -0.06804(6) 0.27128(9) -0.16965(12)
N1_2 N 0.0000 -0.04754(14) -0.2500
C1A C -0.19889(9) 0.49281(13) -0.7562(2)
H1A H -0.1552 0.5120 -0.7018
H2A H -0.2198 0.5450 -0.8139
C2A C -0.23572(8) 0.46913(12) -0.67223(18)
H3A H -0.2368 0.5254 -0.6217
C3A C -0.30536(8) 0.43913(12) -0.75733(17)
H4A H -0.3285 0.4250 -0.7029
H5A H -0.3275 0.4907 -0.8150
C4A C -0.30448(7) 0.35100(11) -0.83712(14)
C5A C -0.26673(8) 0.37654(13) -0.92033(16)
H6A H -0.2662 0.3223 -0.9731
H7A H -0.2882 0.4285 -0.9780
C6A C -0.19742(9) 0.40541(13) -0.83517(17)
H8A H -0.1741 0.4204 -0.8901
C7A C -0.37260(9) 0.31843(12) -0.92896(16)
H9A H -0.3894 0.3634 -1.0000
H10A H -0.3689 0.2574 -0.9655
C8A C -0.42116(8) 0.30910(11) -0.86699(16)
C9A C -0.02040(8) 0.90372(11) -0.17087(15)
H11A H -0.0353 0.9372 -0.1170
C10A C -0.02008(9) 0.80569(10) -0.16648(17)
H12A H -0.0331 0.7740 -0.1084
C13A C 0.02238(8) 0.50019(11) -0.13902(16)
H13A H 0.0388 0.4667 -0.0613
C14A C 0.02222(9) 0.59820(11) -0.13444(16)
H14A H 0.0368 0.6297 -0.0552
C15A C -0.26845(8) 0.27081(12) -0.74439(15)
H15A H -0.2675 0.2152 -0.7945
H16A H -0.2916 0.2542 -0.6908
C16A C -0.19886(8) 0.29884(10) -0.65642(16)
C17A C -0.20165(8) 0.38826(12) -0.57925(16)
H17A H -0.2247 0.3738 -0.5248
H18A H -0.1582 0.4077 -0.5235
C18A C -0.16313(8) 0.32431(13) -0.74278(17)
H19A H -0.1193 0.3432 -0.6890
H20A H -0.1612 0.2690 -0.7926
C19A C -0.10223(8) 0.21314(11) -0.46196(16)
C20A C -0.16915(9) 0.21181(12) -0.57037(19)
H21A H -0.1988 0.1937 -0.5313
H22A H -0.1695 0.1605 -0.6282
loop_
_geom_bond_atom_site_label_1
_geom_bond_atom_site_label_2
_geom_bond_site_symmetry_1
_geom_bond_site_symmetry_2
Zn1 O2 1_555 1_555
Zn2 O1 1_555 1_555
O1 C19 1_555 1_555
O2 C19 1_555 1_555
O3 C8 1_555 1_555
O4 C8 1_555 1_555
N1 C9 1_555 1_555
N2 Zn1 1_555 1_555
C1 H1 1_555 1_555
H2 C1 1_555 1_555
C2 C1 1_555 1_555
H3 C2 1_555 1_555
C3 C2 1_555 1_555
H4 C3 1_555 1_555
H5 C3 1_555 1_555
C4 C3 1_555 1_555
C5 C4 1_555 1_555
H6 C5 1_555 1_555
H7 C5 1_555 1_555
C6 C1 1_555 1_555
H8 C6 1_555 1_555
C7 C4 1_555 1_555
H9 C7 1_555 1_555
H10 C7 1_555 1_555
C8 C7 1_555 1_555
C9 H11 1_555 1_555
C10 C9 1_555 1_555
H12 C10 1_555 1_555
C11 C10 1_555 1_555
C12 C11 1_555 1_555
C13 N2 1_555 1_555
H13 C13 1_555 1_555
C14 C12 1_555 1_555
H14 C14 1_555 1_555
C15 C4 1_555 1_555
H15 C15 1_555 1_555
H16 C15 1_555 1_555
C16 C15 1_555 1_555
C17 C2 1_555 1_555
H17 C17 1_555 1_555
H18 C17 1_555 1_555
C18 C6 1_555 1_555
H19 C18 1_555 1_555
H20 C18 1_555 1_555
C19 C20 1_555 1_555
C20 C16 1_555 1_555
H21 C20 1_555 1_555
H22 C20 1_555 1_555
Zn1F O4 1_555 1_555
Zn1F_2 O4A 1_555 1_555
Zn2F O3 1_555 1_555
Zn2_2 N1 1_555 1_555
Zn2F_2 O3A 1_555 1_555
O1A Zn2 1_555 1_555
O2A Zn1 1_555 1_555
O3A C8A 1_555 1_555
O3F Zn2 1_555 1_555
O3G Zn2 1_555 1_555
O4A C8A 1_555 1_555
O4F Zn1 1_555 1_555
O4G Zn1 1_555 1_555
N1_2 Zn2 1_555 1_555
C1A H1A 1_555 1_555
H2A C1A 1_555 1_555
C2A C1A 1_555 1_555
H3A C2A 1_555 1_555
C3A C2A 1_555 1_555
H4A C3A 1_555 1_555
H5A C3A 1_555 1_555
C4A C3A 1_555 1_555
C5A C4A 1_555 1_555
H6A C5A 1_555 1_555
H7A C5A 1_555 1_555
C6A C1A 1_555 1_555
H8A C6A 1_555 1_555
C7A C4A 1_555 1_555
H9A C7A 1_555 1_555
H10A C7A 1_555 1_555
C8A C7A 1_555 1_555
C9A N1 1_555 1_555
H11A C9A 1_555 1_555
C10A C11 1_555 1_555
H12A C10A 1_555 1_555
C13A N2 1_555 1_555
H13A C13A 1_555 1_555
C14A C12 1_555 1_555
H14A C14A 1_555 1_555
C15A C4A 1_555 1_555
H15A C15A 1_555 1_555
H16A C15A 1_555 1_555
C16A C15A 1_555 1_555
C17A C2A 1_555 1_555
H17A C17A 1_555 1_555
H18A C17A 1_555 1_555
C18A C6A 1_555 1_555
H19A C18A 1_555 1_555
H20A C18A 1_555 1_555
C19A O1A 1_555 1_555
C20A C16A 1_555 1_555
H21A C20A 1_555 1_555
H22A C20A 1_555 1_555
C5 C6 1_555 1_555
C13 C14 1_555 1_555
C16 C17 1_555 1_555
C16 C18 1_555 1_555
O2A C19A 1_555 1_555
C5A C6A 1_555 1_555
C9A C10A 1_555 1_555
C13A C14A 1_555 1_555
C16A C17A 1_555 1_555
C16A C18A 1_555 1_555
C19A C20A 1_555 1_555

#END
