
#######################################################################
#
#                 Cambridge Crystallographic Data Centre
#                                CCDC 
#
#######################################################################
#
# If this CIF has been generated from an entry in the Cambridge 
# Structural Database, then it will include bibliographic, chemical, 
# crystal, experimental, refinement or atomic coordinate data resulting 
# from the CCDC's data processing and validation procedures.
#
#######################################################################

data_YUZWAS
_symmetry_cell_setting           triclinic
_symmetry_space_group_name_H-M   'P -1'
_symmetry_Int_Tables_number      2
_space_group_name_Hall           '-P 1'
loop_
_symmetry_equiv_pos_site_id
_symmetry_equiv_pos_as_xyz
1 x,y,z
2 -x,-y,-z
_cell_length_a                   8.924(5)
_cell_length_b                   10.297(5)
_cell_length_c                   15.620(8)
_cell_angle_alpha                71.631(8)
_cell_angle_beta                 89.933(8)
_cell_angle_gamma                75.659(8)
_cell_volume                     1315.12
loop_
_atom_site_label
_atom_site_type_symbol
_atom_site_fract_x
_atom_site_fract_y
_atom_site_fract_z
C1 C 0.2932(6) 0.1897(6) 0.2166(4)
C2 C 0.1928(6) 0.1201(6) 0.2855(4)
H1 H 0.2599 0.0509 0.3369
H2 H 0.1395 0.0692 0.2585
C3 C 0.1480(7) 0.2890(8) 0.3790(4)
H3 H 0.2158 0.2142 0.4278
H4 H 0.2104 0.3465 0.3421
C4 C -0.0347(6) 0.3428(6) 0.2435(3)
H5 H -0.0825 0.3028 0.2057
H6 H 0.0276 0.4001 0.2063
C5 C 0.0226(7) 0.3815(8) 0.4187(4)
H7 H 0.0726 0.4233 0.4552
C6 C -0.0818(7) 0.5011(8) 0.3392(4)
H8 H -0.0193 0.5584 0.3022
H9 H -0.1597 0.5619 0.3629
C7 C -0.1626(6) 0.4376(6) 0.2803(4)
C8 C -0.2639(6) 0.5627(6) 0.2029(4)
H10 H -0.3435 0.6159 0.2303
H11 H -0.1989 0.6245 0.1748
C9 C -0.3447(5) 0.5341(5) 0.1275(4)
C10 C -0.2601(7) 0.3464(7) 0.3422(4)
H12 H -0.3380 0.4056 0.3669
H13 H -0.3129 0.3059 0.3070
C11 C -0.0744(9) 0.2919(10) 0.4775(4)
H14 H -0.1522 0.3501 0.5028
H15 H -0.0086 0.2169 0.5271
C12 C -0.1540(8) 0.2271(8) 0.4198(4)
H16 H -0.2160 0.1687 0.4578
C13 C -0.0302(7) 0.1351(7) 0.3807(4)
H17 H -0.0801 0.0928 0.3453
H18 H 0.0355 0.0591 0.4298
C14 C 0.0702(6) 0.2228(6) 0.3204(4)
C15 C 1.1347(6) -0.4063(6) 0.0246(4)
H19 H 1.1296 -0.4501 -0.0187
C16 C 1.0141(6) -0.2899(6) 0.0228(4)
H20 H 0.9309 -0.2575 -0.0210
C17 C 1.0182(5) -0.2220(5) 0.0867(4)
C18 C 1.1454(6) -0.2771(6) 0.1506(4)
H21 H 1.1529 -0.2361 0.1951
C19 C 1.2614(6) -0.3939(7) 0.1477(4)
H22 H 1.3456 -0.4289 0.1910
C20 C 0.8919(5) -0.0967(5) 0.0862(4)
C21 C 0.7666(7) -0.0391(7) 0.0203(5)
H23 H 0.7601 -0.0800 -0.0244
C22 C 0.8924(7) -0.0284(7) 0.1504(5)
H24 H 0.9726 -0.0624 0.1962
C23 C 0.7735(8) 0.0902(7) 0.1460(5)
H25 H 0.7784 0.1349 0.1888
C24 C 0.6511(7) 0.0796(6) 0.0214(5)
H26 H 0.5691 0.1161 -0.0233
Cd1 Cd 0.44946(4) 0.33689(4) 0.08854(2)
N1 N 0.6525(5) 0.1438(5) 0.0838(3)
N2 N 1.2580(5) -0.4586(5) 0.0859(3)
O1 O 0.4014(5) 0.2316(5) 0.2417(3)
O2 O 0.2635(5) 0.2068(5) 0.1346(3)
O3 O -0.3851(5) 0.6384(4) 0.0552(3)
O4 O -0.3672(4) 0.4153(4) 0.1399(3)
Cd1_2 Cd 1.44946(4) -0.66311(4) 0.08854(2)
Cd1A Cd -0.44946(4) 0.66311(4) -0.08854(2)
Cd1_3 Cd -0.55054(4) 0.33689(4) 0.08854(2)
N2_2 N 0.2580(5) 0.5414(5) 0.0859(3)
O3A O 0.3851(5) 0.3616(4) -0.0552(3)
O4_2 O 0.6328(4) 0.4153(4) 0.1399(3)
N3 N 0.5350(11) 0.8028(14) 0.3671(9)
C25 C 0.5360(15) 0.701(2) 0.4593(11)
H27 H 0.4704 0.6407 0.4572
H28 H 0.4983 0.7523 0.5001
H29 H 0.6400 0.6440 0.4801
O5 O 0.3703(16) 0.7336(19) 0.3023(13)
C26 C 0.4587(18) 0.8071(19) 0.3014(13)
H30 H 0.4686 0.8716 0.2459
C27 C 0.6333(18) 0.893(2) 0.3666(13)
H31 H 0.6316 0.9563 0.3061
H32 H 0.7375 0.8368 0.3873
H33 H 0.5969 0.9475 0.4059
loop_
_geom_bond_atom_site_label_1
_geom_bond_atom_site_label_2
_geom_bond_site_symmetry_1
_geom_bond_site_symmetry_2
C1 C2 1_555 1_555
C2 H1 1_555 1_555
H2 C2 1_555 1_555
C3 H3 1_555 1_555
H4 C3 1_555 1_555
C4 H5 1_555 1_555
H6 C4 1_555 1_555
C5 C3 1_555 1_555
H7 C5 1_555 1_555
C6 C5 1_555 1_555
H8 C6 1_555 1_555
H9 C6 1_555 1_555
C7 C4 1_555 1_555
C8 C7 1_555 1_555
H10 C8 1_555 1_555
H11 C8 1_555 1_555
C9 C8 1_555 1_555
C10 C7 1_555 1_555
H12 C10 1_555 1_555
H13 C10 1_555 1_555
C11 C5 1_555 1_555
H14 C11 1_555 1_555
H15 C11 1_555 1_555
C12 C10 1_555 1_555
H16 C12 1_555 1_555
C13 C12 1_555 1_555
H17 C13 1_555 1_555
H18 C13 1_555 1_555
C14 C2 1_555 1_555
C15 H19 1_555 1_555
C16 C15 1_555 1_555
H20 C16 1_555 1_555
C17 C16 1_555 1_555
C18 C17 1_555 1_555
H21 C18 1_555 1_555
C19 C18 1_555 1_555
H22 C19 1_555 1_555
C20 C17 1_555 1_555
C21 C20 1_555 1_555
H23 C21 1_555 1_555
C22 C20 1_555 1_555
H24 C22 1_555 1_555
C23 C22 1_555 1_555
H25 C23 1_555 1_555
C24 C21 1_555 1_555
H26 C24 1_555 1_555
Cd1 N1 1_555 1_555
N1 C23 1_555 1_555
N2 C15 1_555 1_555
O1 C1 1_555 1_555
O2 C1 1_555 1_555
O3 C9 1_555 1_555
O4 C9 1_555 1_555
N3 C25 1_555 1_555
C25 H27 1_555 1_555
H28 C25 1_555 1_555
H29 C25 1_555 1_555
O5 C26 1_555 1_555
C26 N3 1_555 1_555
H30 C26 1_555 1_555
C27 N3 1_555 1_555
H31 C27 1_555 1_555
H32 C27 1_555 1_555
H33 C27 1_555 1_555
Cd1_2 N2 1_555 1_555
Cd1A O3 1_555 1_555
Cd1_3 O4 1_555 1_555
N2_2 Cd1 1_555 1_555
O3A Cd1 1_555 1_555
O4_2 Cd1 1_555 1_555
C3 C14 1_555 1_555
C4 C14 1_555 1_555
C6 C7 1_555 1_555
C11 C12 1_555 1_555
C13 C14 1_555 1_555
C19 N2 1_555 1_555
C24 N1 1_555 1_555
Cd1 O1 1_555 1_555
Cd1 O2 1_555 1_555

#END
