
#######################################################################
#
#                 Cambridge Crystallographic Data Centre
#                                CCDC 
#
#######################################################################
#
# If this CIF has been generated from an entry in the Cambridge 
# Structural Database, then it will include bibliographic, chemical, 
# crystal, experimental, refinement or atomic coordinate data resulting 
# from the CCDC's data processing and validation procedures.
#
#######################################################################

data_YUZXUN
_symmetry_cell_setting           monoclinic
_symmetry_space_group_name_H-M   'P 21'
_symmetry_Int_Tables_number      4
_space_group_name_Hall           'P 2yb'
loop_
_symmetry_equiv_pos_site_id
_symmetry_equiv_pos_as_xyz
1 x,y,z
2 -x,1/2+y,-z
_cell_length_a                   9.7901(11)
_cell_length_b                   10.4305(12)
_cell_length_c                   32.683(4)
_cell_angle_alpha                90
_cell_angle_beta                 97.740(1)
_cell_angle_gamma                90
_cell_volume                     3307.04
loop_
_atom_site_label
_atom_site_type_symbol
_atom_site_fract_x
_atom_site_fract_y
_atom_site_fract_z
Zn1 Zn 0.09791(6) 0.16081(5) 0.635535(13)
C1 C 0.1022(6) -0.1279(7) 0.34978(13)
H1 H 0.0882 -0.1587 0.3228
C2 C 0.1961(6) -0.0353(6) 0.35986(14)
H2 H 0.2463 -0.0029 0.3400
C3 C 0.2181(6) 0.0113(6) 0.39924(14)
H3 H 0.2859 0.0730 0.4061
C4 C 0.1418(5) -0.0311(6) 0.42882(12)
C5 C 0.0476(5) -0.1274(7) 0.41617(12)
H4 H -0.0054 -0.1598 0.4354
C6 C 0.1567(5) 0.0211(5) 0.47140(12)
C7 C 0.2645(5) 0.1051(6) 0.48564(12)
H5 H 0.3273 0.1251 0.4676
C8 C 0.2844(4) 0.1604(6) 0.52442(11)
C9 C 0.1903(5) 0.1278(6) 0.55293(12)
C10 C 0.0814(5) 0.0397(6) 0.53921(12)
C11 C 0.0674(5) -0.0103(6) 0.49872(13)
H6 H -0.0047 -0.0664 0.4903
C12 C 0.4076(5) 0.2477(6) 0.53811(14)
C13 C 0.4970(7) 0.2682(8) 0.50384(18)
H7 H 0.5310 0.1870 0.4957
H8 H 0.5732 0.3229 0.5137
H9 H 0.4429 0.3076 0.4805
C14 C 0.3581(6) 0.3812(6) 0.54974(18)
H10 H 0.3029 0.3731 0.5718
H11 H 0.3041 0.4193 0.5262
H12 H 0.4365 0.4346 0.5586
C15 C 0.4983(5) 0.1877(9) 0.57521(15)
H13 H 0.4448 0.1763 0.5975
H14 H 0.5748 0.2433 0.5839
H15 H 0.5319 0.1061 0.5674
C16 C -0.0106(5) -0.0155(5) 0.56575(12)
H16 H -0.0710 -0.0787 0.5542
C17 C -0.1010(4) -0.0607(4) 0.62878(12)
H17 H -0.0433 -0.1308 0.6413
C18 C -0.2321(5) -0.1210(6) 0.60591(13)
H18 H -0.2896 -0.0545 0.5918
H19 H -0.2077 -0.1806 0.5853
C19 C -0.3127(5) -0.1916(6) 0.63594(14)
H20 H -0.3982 -0.2236 0.6210
H21 H -0.2593 -0.2648 0.6473
C20 C -0.3450(5) -0.1073(5) 0.67086(14)
H22 H -0.3910 -0.1575 0.6899
H23 H -0.4068 -0.0391 0.6600
C21 C -0.2125(5) -0.0491(6) 0.69383(13)
H24 H -0.2353 0.0073 0.7155
H25 H -0.1537 -0.1169 0.7065
C22 C -0.1369(4) 0.0256(4) 0.66434(11)
H26 H -0.1994 0.0926 0.6520
C23 C 0.0318(5) 0.0938(5) 0.72090(12)
H27 H -0.0211 0.0513 0.7382
C24 C 0.1530(5) 0.1608(6) 0.73985(12)
C25 C 0.1648(5) 0.1753(6) 0.78323(11)
H28 H 0.0988 0.1372 0.7972
C26 C 0.2690(5) 0.2426(5) 0.80536(12)
C27 C 0.3656(5) 0.3013(6) 0.78270(12)
H29 H 0.4356 0.3505 0.7970
C28 C 0.3613(5) 0.2892(6) 0.74036(12)
C29 C 0.2521(5) 0.2172(6) 0.71771(12)
C30 C 0.4682(5) 0.3557(7) 0.71708(12)
C31 C 0.5487(5) 0.2526(6) 0.69603(14)
H30 H 0.5909 0.1936 0.7165
H31 H 0.6186 0.2933 0.6826
H32 H 0.4863 0.2070 0.6759
C32 C 0.3974(6) 0.4477(6) 0.68440(15)
H33 H 0.3473 0.5114 0.6975
H34 H 0.3349 0.4006 0.6648
H35 H 0.4657 0.4888 0.6704
C33 C 0.5737(6) 0.4350(7) 0.74542(15)
H36 H 0.6208 0.3806 0.7665
H37 H 0.5271 0.5022 0.7581
H38 H 0.6393 0.4718 0.7295
C34 C 0.2772(5) 0.2594(5) 0.85118(12)
C35 C 0.2265(4) 0.1675(6) 0.87545(12)
H39 H 0.1893 0.0917 0.8638
C36 C 0.2320(5) 0.1899(6) 0.91732(13)
H40 H 0.1954 0.1308 0.9342
C37 C 0.2912(6) 0.2989(7) 0.93340(14)
H41 H 0.2953 0.3114 0.9617
C38 C 0.3358(5) 0.3656(7) 0.87094(12)
H42 H 0.3731 0.4264 0.8548
N1 N -0.0084(4) 0.0886(4) 0.68201(10)
N2 N -0.0168(4) 0.0146(4) 0.60382(10)
N3 N 0.0282(4) -0.1768(4) 0.37778(10)
N4 N 0.3442(5) 0.3897(6) 0.91160(12)
O1 O 0.2061(3) 0.1763(5) 0.58933(8)
O2 O 0.2512(3) 0.2010(4) 0.67826(8)
Zn1A Zn -0.09791(6) -0.33919(5) 0.364465(13)
N3A N -0.0282(4) 0.3232(4) 0.62222(10)
Zn2 Zn 0.39808(5) 0.85358(4) 0.867672(12)
C39 C 0.2300(7) 0.7257(8) 0.57023(16)
H43 H 0.2296 0.7125 0.5421
C40 C 0.2976(5) 0.8315(7) 0.58786(14)
H44 H 0.3458 0.8859 0.5724
C41 C 0.2923(5) 0.8546(8) 0.62898(12)
H45 H 0.3331 0.9283 0.6411
C42 C 0.2274(5) 0.7704(6) 0.65257(13)
C43 C 0.1647(5) 0.6627(8) 0.63189(13)
H46 H 0.1212 0.6037 0.6471
C44 C 0.2274(5) 0.7861(6) 0.69801(12)
C45 C 0.3235(4) 0.8623(6) 0.72100(11)
H47 H 0.3835 0.9102 0.7073
C46 C 0.3351(5) 0.8707(6) 0.76409(11)
C47 C 0.2391(4) 0.8056(5) 0.78573(12)
C48 C 0.1323(5) 0.7311(6) 0.76167(13)
C49 C 0.1326(5) 0.7247(6) 0.71949(13)
H48 H 0.0643 0.6758 0.7043
C50 C 0.0211(5) 0.6675(7) 0.78387(12)
C51 C -0.0812(6) 0.5917(7) 0.75327(14)
H49 H -0.1491 0.5522 0.7678
H50 H -0.0326 0.5267 0.7403
H51 H -0.1259 0.6488 0.7326
C52 C 0.0897(6) 0.5709(7) 0.81598(15)
H52 H 0.0203 0.5305 0.8297
H53 H 0.1538 0.6151 0.8359
H54 H 0.1378 0.5070 0.8023
C53 C -0.0558(5) 0.7695(6) 0.80409(14)
H55 H -0.1254 0.7301 0.8180
H56 H -0.0985 0.8276 0.7834
H57 H 0.0074 0.8158 0.8237
C54 C 0.4406(4) 0.9539(5) 0.78430(12)
H58 H 0.4831 1.0083 0.7673
C55 C 0.5833(4) 1.0592(4) 0.83940(11)
H59 H 0.5320 1.1381 0.8430
C56 C 0.6496(4) 1.0150(4) 0.88295(11)
H60 H 0.7068 0.9400 0.8791
C57 C 0.7443(5) 1.1174(6) 0.90353(13)
H61 H 0.7881 1.0864 0.9301
H62 H 0.6907 1.1929 0.9083
C58 C 0.8544(4) 1.1535(5) 0.87687(12)
H63 H 0.9145 1.0805 0.8748
H64 H 0.9098 1.2230 0.8899
C59 C 0.7908(4) 1.1946(5) 0.83371(12)
H65 H 0.7397 1.2735 0.8356
H66 H 0.8637 1.2112 0.8170
C60 C 0.6949(5) 1.0922(5) 0.81291(12)
H67 H 0.7476 1.0158 0.8085
H68 H 0.6525 1.1230 0.7862
C61 C 0.5314(4) 0.9968(5) 0.94271(12)
H69 H 0.6039 1.0452 0.9561
C62 C 0.4259(4) 0.9594(5) 0.96710(12)
C63 C 0.4379(5) 1.0071(5) 1.00697(12)
H70 H 0.5152 1.0558 1.0166
C64 C 0.3409(5) 0.9859(5) 1.03309(12)
C65 C 0.2273(5) 0.9087(5) 1.01770(12)
H71 H 0.1610 0.8927 1.0349
C66 C 0.2086(4) 0.8559(6) 0.97911(11)
C67 C 0.3109(5) 0.8812(5) 0.95169(11)
C68 C 0.0823(5) 0.7699(6) 0.96412(13)
C69 C 0.1304(6) 0.6373(6) 0.95332(15)
H72 H 0.1820 0.5992 0.9773
H73 H 0.1878 0.6442 0.9318
H74 H 0.0518 0.5848 0.9440
C70 C -0.0011(5) 0.8318(7) 0.92594(13)
H75 H -0.0311 0.9156 0.9330
H76 H -0.0800 0.7796 0.9167
H77 H 0.0557 0.8388 0.9043
C71 C -0.0140(6) 0.7561(6) 0.99721(15)
H78 H 0.0344 0.7149 1.0212
H79 H -0.0925 0.7053 0.9865
H80 H -0.0442 0.8394 1.0047
C72 C 0.3565(5) 1.0408(5) 1.07547(13)
C73 C 0.2849(5) 0.9954(6) 1.10604(12)
H81 H 0.2212 0.9296 1.1002
C74 C 0.3077(6) 1.0483(6) 1.14590(13)
H82 H 0.2587 1.0194 1.1666
C75 C 0.4048(5) 1.1440(6) 1.15358(12)
H83 H 0.4228 1.1771 1.1802
C76 C 0.4485(5) 1.1391(6) 1.08696(12)
H84 H 0.4971 1.1720 1.0668
N5 N 0.4822(4) 0.9612(4) 0.82306(9)
N6 N 0.5362(4) 0.9707(4) 0.90490(10)
N7 N 0.1643(5) 0.6403(7) 0.59137(13)
N8 N 0.4734(4) 1.1908(4) 1.12477(10)
O3 O 0.2435(3) 0.8114(4) 0.82578(8)
O4 O 0.2930(3) 0.8349(4) 0.91452(8)
Zn2A Zn 0.60192(5) 1.35358(4) 1.132328(12)
N8A N 0.5266(4) 0.6908(4) 0.87523(10)
loop_
_geom_bond_atom_site_label_1
_geom_bond_atom_site_label_2
_geom_bond_site_symmetry_1
_geom_bond_site_symmetry_2
Zn1 N1 1_555 1_555
Zn2 N5 1_555 1_555
C1 H1 1_555 1_555
C2 C1 1_555 1_555
H2 C2 1_555 1_555
C3 C2 1_555 1_555
H3 C3 1_555 1_555
C4 C3 1_555 1_555
C5 C4 1_555 1_555
H4 C5 1_555 1_555
C6 C4 1_555 1_555
C7 C6 1_555 1_555
H5 C7 1_555 1_555
C8 C7 1_555 1_555
C9 C8 1_555 1_555
C10 C9 1_555 1_555
C11 C6 1_555 1_555
H6 C11 1_555 1_555
C12 C8 1_555 1_555
C13 C12 1_555 1_555
H7 C13 1_555 1_555
H8 C13 1_555 1_555
H9 C13 1_555 1_555
C14 C12 1_555 1_555
H10 C14 1_555 1_555
H11 C14 1_555 1_555
H12 C14 1_555 1_555
C15 C12 1_555 1_555
H13 C15 1_555 1_555
H14 C15 1_555 1_555
H15 C15 1_555 1_555
C16 C10 1_555 1_555
H16 C16 1_555 1_555
C17 H17 1_555 1_555
C18 C17 1_555 1_555
H18 C18 1_555 1_555
H19 C18 1_555 1_555
C19 C18 1_555 1_555
H20 C19 1_555 1_555
H21 C19 1_555 1_555
C20 C19 1_555 1_555
H22 C20 1_555 1_555
H23 C20 1_555 1_555
C21 C20 1_555 1_555
H24 C21 1_555 1_555
H25 C21 1_555 1_555
C22 C17 1_555 1_555
H26 C22 1_555 1_555
C23 H27 1_555 1_555
C24 C23 1_555 1_555
C25 C24 1_555 1_555
H28 C25 1_555 1_555
C26 C25 1_555 1_555
C27 C26 1_555 1_555
H29 C27 1_555 1_555
C28 C27 1_555 1_555
C29 C24 1_555 1_555
C30 C28 1_555 1_555
C31 C30 1_555 1_555
H30 C31 1_555 1_555
H31 C31 1_555 1_555
H32 C31 1_555 1_555
C32 C30 1_555 1_555
H33 C32 1_555 1_555
H34 C32 1_555 1_555
H35 C32 1_555 1_555
C33 C30 1_555 1_555
H36 C33 1_555 1_555
H37 C33 1_555 1_555
H38 C33 1_555 1_555
C34 C26 1_555 1_555
C35 C34 1_555 1_555
H39 C35 1_555 1_555
C36 C35 1_555 1_555
H40 C36 1_555 1_555
C37 C36 1_555 1_555
H41 C37 1_555 1_555
C38 C34 1_555 1_555
H42 C38 1_555 1_555
C39 H43 1_555 1_555
C40 C39 1_555 1_555
H44 C40 1_555 1_555
C41 C40 1_555 1_555
H45 C41 1_555 1_555
C42 C41 1_555 1_555
C43 C42 1_555 1_555
H46 C43 1_555 1_555
C44 C42 1_555 1_555
C45 C44 1_555 1_555
H47 C45 1_555 1_555
C46 C45 1_555 1_555
C47 C46 1_555 1_555
C48 C47 1_555 1_555
C49 C44 1_555 1_555
H48 C49 1_555 1_555
C50 C48 1_555 1_555
C51 C50 1_555 1_555
H49 C51 1_555 1_555
H50 C51 1_555 1_555
H51 C51 1_555 1_555
C52 C50 1_555 1_555
H52 C52 1_555 1_555
H53 C52 1_555 1_555
H54 C52 1_555 1_555
C53 C50 1_555 1_555
H55 C53 1_555 1_555
H56 C53 1_555 1_555
H57 C53 1_555 1_555
C54 C46 1_555 1_555
H58 C54 1_555 1_555
C55 H59 1_555 1_555
C56 C55 1_555 1_555
H60 C56 1_555 1_555
C57 C56 1_555 1_555
H61 C57 1_555 1_555
H62 C57 1_555 1_555
C58 C57 1_555 1_555
H63 C58 1_555 1_555
H64 C58 1_555 1_555
C59 C58 1_555 1_555
H65 C59 1_555 1_555
H66 C59 1_555 1_555
C60 C55 1_555 1_555
H67 C60 1_555 1_555
H68 C60 1_555 1_555
C61 H69 1_555 1_555
C62 C61 1_555 1_555
C63 C62 1_555 1_555
H70 C63 1_555 1_555
C64 C63 1_555 1_555
C65 C64 1_555 1_555
H71 C65 1_555 1_555
C66 C65 1_555 1_555
C67 C62 1_555 1_555
C68 C66 1_555 1_555
C69 C68 1_555 1_555
H72 C69 1_555 1_555
H73 C69 1_555 1_555
H74 C69 1_555 1_555
C70 C68 1_555 1_555
H75 C70 1_555 1_555
H76 C70 1_555 1_555
H77 C70 1_555 1_555
C71 C68 1_555 1_555
H78 C71 1_555 1_555
H79 C71 1_555 1_555
H80 C71 1_555 1_555
C72 C64 1_555 1_555
C73 C72 1_555 1_555
H81 C73 1_555 1_555
C74 C73 1_555 1_555
H82 C74 1_555 1_555
C75 C74 1_555 1_555
H83 C75 1_555 1_555
C76 C72 1_555 1_555
H84 C76 1_555 1_555
N1 C22 1_555 1_555
N2 Zn1 1_555 1_555
N3 C1 1_555 1_555
N4 C37 1_555 1_555
N5 C54 1_555 1_555
N6 Zn2 1_555 1_555
N7 C39 1_555 1_555
N8 C75 1_555 1_555
O1 Zn1 1_555 1_555
O2 Zn1 1_555 1_555
O3 Zn2 1_555 1_555
O4 Zn2 1_555 1_555
Zn1A N3 1_555 1_555
Zn2A N8 1_555 1_555
N3A Zn1 1_555 1_555
N8A Zn2 1_555 1_555
C5 N3 1_555 1_555
C9 O1 1_555 1_555
C10 C11 1_555 1_555
C16 N2 1_555 1_555
C17 N2 1_555 1_555
C21 C22 1_555 1_555
C23 N1 1_555 1_555
C28 C29 1_555 1_555
C29 O2 1_555 1_555
C38 N4 1_555 1_555
C43 N7 1_555 1_555
C47 O3 1_555 1_555
C48 C49 1_555 1_555
C55 N5 1_555 1_555
C56 N6 1_555 1_555
C59 C60 1_555 1_555
C61 N6 1_555 1_555
C66 C67 1_555 1_555
C67 O4 1_555 1_555
C76 N8 1_555 1_555

#END
