
#######################################################################
#
#                 Cambridge Crystallographic Data Centre
#                                CCDC 
#
#######################################################################
#
# If this CIF has been generated from an entry in the Cambridge 
# Structural Database, then it will include bibliographic, chemical, 
# crystal, experimental, refinement or atomic coordinate data resulting 
# from the CCDC's data processing and validation procedures.
#
#######################################################################

data_YUZXIB
_symmetry_cell_setting           monoclinic
_symmetry_space_group_name_H-M   'P 21'
_symmetry_Int_Tables_number      4
_space_group_name_Hall           'P 2yb'
loop_
_symmetry_equiv_pos_site_id
_symmetry_equiv_pos_as_xyz
1 x,y,z
2 -x,1/2+y,-z
_cell_length_a                   15.312(7)
_cell_length_b                   12.191(5)
_cell_length_c                   18.927(8)
_cell_angle_alpha                90
_cell_angle_beta                 96.983(7)
_cell_angle_gamma                90
_cell_volume                     3506.87
loop_
_atom_site_label
_atom_site_type_symbol
_atom_site_fract_x
_atom_site_fract_y
_atom_site_fract_z
Mn1 Mn 0.19667(11) 0.11845(12) 0.82139(8)
N1 N 0.0693(6) 0.1573(7) 0.8057(4)
N2 N 0.2026(6) 0.2241(8) 0.7439(5)
N3 N -0.1993(6) -0.2364(8) 1.0784(5)
N4 N 0.7369(9) 0.4016(14) 0.7190(9)
O1 O 0.1814(5) 0.0246(7) 0.8959(4)
O2 O 0.3209(5) 0.1133(8) 0.8377(4)
O3 O 0.1781(5) -0.0072(7) 0.7443(4)
O4 O 0.2132(6) -0.1571(9) 0.6908(4)
C1 C 0.1093(8) -0.0169(10) 0.9169(5)
C2 C 0.1139(8) -0.1015(11) 0.9703(6)
C3 C 0.0367(8) -0.1408(12) 0.9898(6)
H1 H 0.0404 -0.1959 1.0240
C4 C -0.0469(7) -0.1052(10) 0.9626(6)
C5 C -0.0517(8) -0.0225(10) 0.9124(5)
H2 H -0.1066 0.0037 0.8934
C6 C 0.0238(8) 0.0231(10) 0.8893(6)
C7 C 0.2060(8) -0.1443(11) 1.0015(7)
C8 C 0.2614(9) -0.0548(14) 1.0396(8)
H3 H 0.2310 -0.0242 1.0764
H4 H 0.2718 0.0016 1.0063
H5 H 0.3166 -0.0850 1.0602
C9 C 0.2557(8) -0.1935(12) 0.9433(7)
H6 H 0.3120 -0.2201 0.9643
H7 H 0.2641 -0.1381 0.9087
H8 H 0.2223 -0.2530 0.9205
C10 C 0.1938(9) -0.2381(16) 1.0545(8)
H9 H 0.1634 -0.2108 1.0923
H10 H 0.2504 -0.2657 1.0739
H11 H 0.1601 -0.2962 1.0301
C11 C -0.1273(8) -0.1512(11) 0.9859(6)
C12 C -0.2070(7) -0.1576(11) 0.9395(6)
H12 H -0.2101 -0.1302 0.8934
C13 C -0.2794(10) -0.2041(12) 0.9630(7)
H13 H -0.3310 -0.2130 0.9320
C14 C -0.2755(8) -0.2384(11) 1.0340(7)
H14 H -0.3265 -0.2632 1.0510
C15 C -0.1302(7) -0.1952(8) 1.0540(6)
H15 H -0.0780 -0.1949 1.0847
C16 C 0.0109(7) 0.1069(10) 0.8373(5)
H16 H -0.0471 0.1284 0.8242
C17 C 0.0496(7) 0.2483(9) 0.7558(5)
H17 H 0.0602 0.3167 0.7828
C18 C -0.0468(8) 0.2528(12) 0.7173(7)
H18 H -0.0604 0.1849 0.6915
H19 H -0.0878 0.2609 0.7522
C19 C -0.0563(7) 0.3478(12) 0.6664(6)
H20 H -0.0509 0.4155 0.6936
H21 H -0.1147 0.3461 0.6402
C20 C 0.0112(7) 0.3483(10) 0.6138(5)
H22 H 0.0047 0.4151 0.5857
H23 H 0.0002 0.2867 0.5815
C21 C 0.1063(7) 0.3412(10) 0.6517(5)
H24 H 0.1472 0.3330 0.6167
H25 H 0.1210 0.4081 0.6782
C22 C 0.1141(6) 0.2446(9) 0.7015(5)
H26 H 0.0999 0.1791 0.6723
C23 C 0.2715(9) 0.2678(13) 0.7242(6)
H27 H 0.2634 0.3181 0.6870
C24 C 0.3627(8) 0.2454(11) 0.7554(6)
C25 C 0.3824(7) 0.1650(9) 0.8095(5)
C26 C 0.4731(8) 0.1434(11) 0.8312(6)
C27 C 0.5366(8) 0.2075(11) 0.7999(6)
H28 H 0.5957 0.1963 0.8162
C28 C 0.5164(8) 0.2838(10) 0.7479(6)
C29 C 0.4281(8) 0.3029(10) 0.7258(7)
H29 H 0.4122 0.3549 0.6906
C30 C 0.5016(7) 0.0552(11) 0.8878(6)
C31 C 0.4628(8) 0.0749(14) 0.9564(6)
H30 H 0.4813 0.0176 0.9897
H31 H 0.3998 0.0752 0.9470
H32 H 0.4828 0.1444 0.9761
C32 C 0.4739(9) -0.0561(11) 0.8586(7)
H33 H 0.4922 -0.1113 0.8935
H34 H 0.5009 -0.0699 0.8163
H35 H 0.4111 -0.0581 0.8475
C33 C 0.6018(8) 0.0495(13) 0.9076(8)
H36 H 0.6160 -0.0081 0.9416
H37 H 0.6228 0.1182 0.9278
H38 H 0.6294 0.0348 0.8656
C34 C 0.5862(8) 0.3469(11) 0.7158(6)
C35 C 0.6708(10) 0.3479(14) 0.7452(9)
H39 H 0.6848 0.3082 0.7870
C36 C 0.7172(10) 0.4546(14) 0.6588(8)
H40 H 0.7614 0.4910 0.6385
C37 C 0.6346(10) 0.4573(17) 0.6261(7)
H41 H 0.6223 0.4964 0.5838
C38 C 0.5673(10) 0.4031(16) 0.6539(9)
H42 H 0.5102 0.4050 0.6308
C39 C 0.2245(8) -0.0893(11) 0.7361(6)
Mn1A Mn -0.19667(11) -0.38155(12) 1.17861(8)
N3A N 0.1993(6) 0.2636(8) 0.9216(5)
Mn2 Mn 0.79795(10) 0.83814(12) 0.68060(8)
N5 N 0.7949(6) 0.7096(8) 0.7444(5)
N6 N 0.9277(6) 0.8209(8) 0.7061(5)
N7 N 0.3521(12) 0.5067(17) 0.8743(9)
N8 N 1.1926(6) 1.2059(9) 0.4201(5)
O5 O 0.6736(5) 0.8390(8) 0.6602(4)
O6 O 0.8134(5) 0.9447(7) 0.6111(4)
O7 O 0.7968(6) 0.9455(7) 0.7669(4)
O8 O 0.7838(6) 1.1143(9) 0.8096(5)
C40 C 0.5668(8) 0.6526(11) 0.7745(7)
H43 H 0.5811 0.5973 0.8078
C41 C 0.6364(8) 0.7082(11) 0.7453(6)
C42 C 0.6119(8) 0.7892(11) 0.6917(6)
C43 C 0.5233(8) 0.8153(11) 0.6705(6)
C44 C 0.4949(8) 0.9049(12) 0.6151(7)
C45 C 0.5252(10) 0.8798(15) 0.5450(7)
H44 H 0.4981 0.8132 0.5264
H45 H 0.5880 0.8713 0.5510
H46 H 0.5090 0.9389 0.5125
C46 C 0.5382(10) 1.0164(12) 0.6410(8)
H47 H 0.6010 1.0076 0.6495
H48 H 0.5164 1.0385 0.6842
H49 H 0.5240 1.0714 0.6051
C47 C 0.3951(9) 0.9156(16) 0.6021(9)
H50 H 0.3699 0.8472 0.5848
H51 H 0.3794 0.9720 0.5675
H52 H 0.3730 0.9344 0.6459
C48 C 0.4619(8) 0.7613(11) 0.7040(6)
H53 H 0.4033 0.7811 0.6923
C49 C 0.4809(8) 0.6773(11) 0.7554(6)
C50 C 0.4083(8) 0.6186(11) 0.7865(6)
C51 C 0.4187(11) 0.5668(17) 0.8484(8)
H54 H 0.4732 0.5708 0.8759
C52 C 0.2750(10) 0.4991(13) 0.8309(10)
H55 H 0.2289 0.4601 0.8465
C53 C 0.2635(9) 0.5435(13) 0.7697(8)
H56 H 0.2101 0.5369 0.7407
C54 C 0.3282(10) 0.5982(16) 0.7488(9)
H57 H 0.3191 0.6267 0.7029
C55 C 0.7247(8) 0.6730(11) 0.7642(6)
H58 H 0.7318 0.6143 0.7957
C56 C 0.8804(6) 0.6585(8) 0.7653(5)
H59 H 0.8927 0.6113 0.7258
C57 C 0.8888(8) 0.5875(11) 0.8319(6)
H60 H 0.8494 0.5251 0.8247
H61 H 0.8730 0.6296 0.8719
C58 C 0.9849(7) 0.5474(9) 0.8475(6)
H62 H 0.9914 0.5051 0.8912
H63 H 0.9980 0.4995 0.8093
C59 C 1.0499(8) 0.6410(11) 0.8546(6)
H64 H 1.1093 0.6124 0.8640
H65 H 1.0390 0.6876 0.8942
C60 C 1.0402(8) 0.7095(11) 0.7842(6)
H66 H 1.0815 0.7701 0.7885
H67 H 1.0528 0.6637 0.7447
C61 C 0.9492(7) 0.7516(9) 0.7710(5)
H68 H 0.9392 0.7967 0.8122
C62 C 0.9861(8) 0.8639(10) 0.6744(6)
H69 H 1.0441 0.8457 0.6905
C63 C 0.9719(7) 0.9407(10) 0.6138(5)
C64 C 0.8856(8) 0.9769(10) 0.5852(6)
C65 C 0.8786(8) 1.0559(11) 0.5312(6)
C66 C 0.9566(7) 1.0948(10) 0.5066(5)
H70 H 0.9517 1.1476 0.4709
C67 C 1.0432(7) 1.0572(10) 0.5340(6)
C68 C 1.0481(7) 0.9763(10) 0.5867(5)
H71 H 1.1023 0.9460 0.6038
C69 C 0.7903(8) 1.1032(13) 0.4983(6)
C70 C 0.7306(9) 1.0103(12) 0.4626(7)
H72 H 0.7208 0.9562 0.4976
H73 H 0.7589 0.9767 0.4256
H74 H 0.6752 1.0408 0.4426
C71 C 0.7444(9) 1.1590(14) 0.5565(7)
H75 H 0.7813 1.2164 0.5783
H76 H 0.7338 1.1059 0.5920
H77 H 0.6894 1.1896 0.5358
C72 C 0.7995(9) 1.1889(13) 0.4397(8)
H78 H 0.8366 1.2477 0.4591
H79 H 0.7425 1.2173 0.4222
H80 H 0.8252 1.1549 0.4014
C73 C 1.1214(7) 1.1051(10) 0.5098(6)
C74 C 1.1226(8) 1.1555(10) 0.4439(5)
H81 H 1.0704 1.1546 0.4132
C75 C 1.2653(8) 1.2053(11) 0.4659(7)
H82 H 1.3141 1.2419 0.4528
C76 C 1.2742(8) 1.1540(11) 0.5320(7)
H83 H 1.3280 1.1524 0.5607
C77 C 1.2006(8) 1.1057(12) 0.5536(7)
H84 H 1.2041 1.0730 0.5982
C78 C 0.7700(9) 1.0410(14) 0.7652(7)
Mn2A Mn 1.20205(10) 1.33814(12) 0.31940(8)
N8A N 0.8074(6) 0.7059(9) 0.5799(5)
loop_
_geom_bond_atom_site_label_1
_geom_bond_atom_site_label_2
_geom_bond_site_symmetry_1
_geom_bond_site_symmetry_2
Mn1 N1 1_555 1_555
Mn2 N5 1_555 1_555
N1 C16 1_555 1_555
N2 Mn1 1_555 1_555
N3 C14 1_555 1_555
N4 C35 1_555 1_555
N5 C55 1_555 1_555
N6 Mn2 1_555 1_555
N7 C51 1_555 1_555
N8 C74 1_555 1_555
O1 Mn1 1_555 1_555
O2 Mn1 1_555 1_555
O3 Mn1 1_555 1_555
O4 C39 1_555 1_555
O5 Mn2 1_555 1_555
O6 Mn2 1_555 1_555
O7 Mn2 1_555 1_555
O8 C78 1_555 1_555
C1 O1 1_555 1_555
C2 C1 1_555 1_555
C3 C2 1_555 1_555
H1 C3 1_555 1_555
C4 C3 1_555 1_555
C5 C4 1_555 1_555
H2 C5 1_555 1_555
C6 C1 1_555 1_555
C7 C2 1_555 1_555
C8 C7 1_555 1_555
H3 C8 1_555 1_555
H4 C8 1_555 1_555
H5 C8 1_555 1_555
C9 C7 1_555 1_555
H6 C9 1_555 1_555
H7 C9 1_555 1_555
H8 C9 1_555 1_555
C10 C7 1_555 1_555
H9 C10 1_555 1_555
H10 C10 1_555 1_555
H11 C10 1_555 1_555
C11 C4 1_555 1_555
C12 C11 1_555 1_555
H12 C12 1_555 1_555
C13 C12 1_555 1_555
H13 C13 1_555 1_555
C14 C13 1_555 1_555
H14 C14 1_555 1_555
C15 N3 1_555 1_555
H15 C15 1_555 1_555
C16 C6 1_555 1_555
H16 C16 1_555 1_555
C17 N1 1_555 1_555
H17 C17 1_555 1_555
C18 C17 1_555 1_555
H18 C18 1_555 1_555
H19 C18 1_555 1_555
C19 C18 1_555 1_555
H20 C19 1_555 1_555
H21 C19 1_555 1_555
C20 C19 1_555 1_555
H22 C20 1_555 1_555
H23 C20 1_555 1_555
C21 C20 1_555 1_555
H24 C21 1_555 1_555
H25 C21 1_555 1_555
C22 N2 1_555 1_555
H26 C22 1_555 1_555
C23 N2 1_555 1_555
H27 C23 1_555 1_555
C24 C23 1_555 1_555
C25 O2 1_555 1_555
C26 C25 1_555 1_555
C27 C26 1_555 1_555
H28 C27 1_555 1_555
C28 C27 1_555 1_555
C29 C24 1_555 1_555
H29 C29 1_555 1_555
C30 C26 1_555 1_555
C31 C30 1_555 1_555
H30 C31 1_555 1_555
H31 C31 1_555 1_555
H32 C31 1_555 1_555
C32 C30 1_555 1_555
H33 C32 1_555 1_555
H34 C32 1_555 1_555
H35 C32 1_555 1_555
C33 C30 1_555 1_555
H36 C33 1_555 1_555
H37 C33 1_555 1_555
H38 C33 1_555 1_555
C34 C28 1_555 1_555
C35 C34 1_555 1_555
H39 C35 1_555 1_555
C36 N4 1_555 1_555
H40 C36 1_555 1_555
C37 C36 1_555 1_555
H41 C37 1_555 1_555
C38 C34 1_555 1_555
H42 C38 1_555 1_555
C39 O3 1_555 1_555
C40 H43 1_555 1_555
C41 C40 1_555 1_555
C42 O5 1_555 1_555
C43 C42 1_555 1_555
C44 C43 1_555 1_555
C45 C44 1_555 1_555
H44 C45 1_555 1_555
H45 C45 1_555 1_555
H46 C45 1_555 1_555
C46 C44 1_555 1_555
H47 C46 1_555 1_555
H48 C46 1_555 1_555
H49 C46 1_555 1_555
C47 C44 1_555 1_555
H50 C47 1_555 1_555
H51 C47 1_555 1_555
H52 C47 1_555 1_555
C48 C43 1_555 1_555
H53 C48 1_555 1_555
C49 C40 1_555 1_555
C50 C49 1_555 1_555
C51 C50 1_555 1_555
H54 C51 1_555 1_555
C52 N7 1_555 1_555
H55 C52 1_555 1_555
C53 C52 1_555 1_555
H56 C53 1_555 1_555
C54 C50 1_555 1_555
H57 C54 1_555 1_555
C55 C41 1_555 1_555
H58 C55 1_555 1_555
C56 N5 1_555 1_555
H59 C56 1_555 1_555
C57 C56 1_555 1_555
H60 C57 1_555 1_555
H61 C57 1_555 1_555
C58 C57 1_555 1_555
H62 C58 1_555 1_555
H63 C58 1_555 1_555
C59 C58 1_555 1_555
H64 C59 1_555 1_555
H65 C59 1_555 1_555
C60 C59 1_555 1_555
H66 C60 1_555 1_555
H67 C60 1_555 1_555
C61 N6 1_555 1_555
H68 C61 1_555 1_555
C62 N6 1_555 1_555
H69 C62 1_555 1_555
C63 C62 1_555 1_555
C64 O6 1_555 1_555
C65 C64 1_555 1_555
C66 C65 1_555 1_555
H70 C66 1_555 1_555
C67 C66 1_555 1_555
C68 C63 1_555 1_555
H71 C68 1_555 1_555
C69 C65 1_555 1_555
C70 C69 1_555 1_555
H72 C70 1_555 1_555
H73 C70 1_555 1_555
H74 C70 1_555 1_555
C71 C69 1_555 1_555
H75 C71 1_555 1_555
H76 C71 1_555 1_555
H77 C71 1_555 1_555
C72 C69 1_555 1_555
H78 C72 1_555 1_555
H79 C72 1_555 1_555
H80 C72 1_555 1_555
C73 C67 1_555 1_555
C74 C73 1_555 1_555
H81 C74 1_555 1_555
C75 N8 1_555 1_555
H82 C75 1_555 1_555
C76 C75 1_555 1_555
H83 C76 1_555 1_555
C77 C73 1_555 1_555
H84 C77 1_555 1_555
C78 O7 1_555 1_555
Mn1A N3 1_555 1_555
Mn2A N8 1_555 1_555
N3A Mn1 1_555 1_555
N8A Mn2 1_555 1_555
C5 C6 1_555 1_555
C11 C15 1_555 1_555
C17 C22 1_555 1_555
C21 C22 1_555 1_555
C24 C25 1_555 1_555
C28 C29 1_555 1_555
C37 C38 1_555 1_555
C41 C42 1_555 1_555
C48 C49 1_555 1_555
C53 C54 1_555 1_555
C56 C61 1_555 1_555
C60 C61 1_555 1_555
C63 C64 1_555 1_555
C67 C68 1_555 1_555
C76 C77 1_555 1_555

#END
