
#######################################################################
#
#                 Cambridge Crystallographic Data Centre
#                                CCDC 
#
#######################################################################
#
# If this CIF has been generated from an entry in the Cambridge 
# Structural Database, then it will include bibliographic, chemical, 
# crystal, experimental, refinement or atomic coordinate data resulting 
# from the CCDC's data processing and validation procedures.
#
#######################################################################

data_ZABQIC01
_symmetry_cell_setting           monoclinic
_symmetry_space_group_name_H-M   'P 21/c'
_symmetry_Int_Tables_number      14
_space_group_name_Hall           '-P 2ybc'
loop_
_symmetry_equiv_pos_site_id
_symmetry_equiv_pos_as_xyz
1 x,y,z
2 -x,1/2+y,1/2-z
3 -x,-y,-z
4 x,1/2-y,1/2+z
_cell_length_a                   5.970(3)
_cell_length_b                   31.47(2)
_cell_length_c                   21.200(13)
_cell_angle_alpha                90
_cell_angle_beta                 90.53(5)
_cell_angle_gamma                90
_cell_volume                     3982.8
loop_
_atom_site_label
_atom_site_type_symbol
_atom_site_fract_x
_atom_site_fract_y
_atom_site_fract_z
C34 C 0.2277(26) 0.5158(5) 0.9335(8)
C35 C 0.0542(28) 0.5290(5) 0.8970(7)
C36 C 0.0663(28) 0.5308(5) 0.8328(8)
C37 C 0.2527(29) 0.5155(6) 0.8018(8)
C38 C 0.4308(29) 0.4989(5) 0.8400(8)
C39 C 0.4111(28) 0.4992(5) 0.9044(8)
H16 H 0.2224(26) 0.5180(5) 0.9772(8)
H17 H -0.0782(28) 0.5372(5) 0.9164(7)
H18 H -0.0519(28) 0.5424(5) 0.8096(8)
H19 H 0.2616(29) 0.5160(6) 0.7580(8)
H20 H 0.5590(29) 0.4881(5) 0.8213(8)
H21 H 0.5259(28) 0.4877(5) 0.9289(8)
C40 C -0.9189(72) 0.2104(11) 0.8338(19)
C41 C -1.1062(63) 0.2288(14) 0.8481(25)
C42 C -1.1174(53) 0.2700(13) 0.8808(20)
C43 C -0.9139(69) 0.2887(10) 0.8991(16)
C44 C -0.7131(53) 0.2677(13) 0.8859(19)
C45 C -0.7148(55) 0.2302(13) 0.8503(18)
H22 H -0.9194(72) 0.1844(11) 0.8130(19)
H23 H -1.2397(63) 0.2154(14) 0.8371(25)
H24 H -1.2539(63) 0.2831(18) 0.8890(28)
H25 H -0.9124(97) 0.3148(12) 0.9197(23)
H26 H -0.5781(63) 0.2787(19) 0.9009(28)
H27 H -0.5802(65) 0.2183(18) 0.8373(26)
Ag1 Ag 0.4445(2) 0.3866(1) 0.6293(1)
N1 N 0.2447(19) 0.3881(4) 0.5395(5)
N2 N 0.7427(20) 0.3419(4) 0.6278(5)
N3 N 0.2198(18) 0.3910(4) 0.7139(5)
C1 C -0.6963(24) 0.3703(4) 0.1840(6)
C2 C -0.8898(23) 0.3471(5) 0.1817(7)
C3 C -0.9925(23) 0.3359(5) 0.1238(7)
C4 C -0.8901(23) 0.3484(5) 0.0670(6)
C5 C -0.6959(22) 0.3715(4) 0.0677(6)
C6 C -0.5921(21) 0.3843(4) 0.1246(6)
C7 C -0.5727(24) 0.3783(5) 0.2417(6)
C8 C -0.4667(23) 0.3812(5) 0.2882(6)
C9 C -0.3177(23) 0.3846(5) 0.3421(6)
C10 C -0.1185(29) 0.4037(5) 0.3378(8)
C11 C 0.0289(31) 0.4050(5) 0.3868(8)
C12 C -0.0330(25) 0.3880(6) 0.4465(6)
C13 C -0.2376(25) 0.3694(5) 0.4527(7)
C14 C -0.3812(27) 0.3683(5) 0.4017(7)
C15 C 0.1245(24) 0.3881(5) 0.4994(7)
C16 C -1.1850(26) 0.3090(5) 0.1211(7)
C17 C -1.3413(27) 0.2866(5) 0.1230(7)
C18 C -1.5395(26) 0.2595(4) 0.1231(7)
C19 C -1.6301(24) 0.2462(5) 0.1822(7)
C20 C -1.8160(23) 0.2202(5) 0.1824(7)
C21 C -1.9192(24) 0.2075(5) 0.1262(7)
C22 C -1.8280(25) 0.2212(5) 0.0653(7)
C23 C -1.6406(24) 0.2468(5) 0.0678(7)
C24 C 0.8861(22) 0.3197(5) 0.6285(6)
C25 C -0.5793(22) 0.3804(5) 0.0102(6)
C26 C -0.4695(21) 0.3854(5) -0.0357(6)
C27 C -0.3321(21) 0.3894(5) -0.0902(5)
C28 C -0.3981(24) 0.3724(4) -0.1491(6)
C29 C -0.2570(23) 0.3753(4) -0.2006(6)
C30 C -0.0518(21) 0.3942(5) -0.1921(6)
C31 C 0.0165(25) 0.4110(4) -0.1364(6)
C32 C -0.1250(24) 0.4084(5) -0.0841(7)
C33 C 0.0957(23) 0.3935(5) 0.7548(6)
S2 S 0.6738(21) 0.4837(5) 0.6590(6)
O4 O 0.4495(63) 0.4983(10) 0.6301(15)
O5 O 0.7602(53) 0.5201(11) 0.6911(14)
O6 O 0.6797(52) 0.4418(11) 0.6846(14)
C53 C 0.7844(77) 0.4842(10) 0.5782(25)
F4 F 0.7911(54) 0.5217(12) 0.5510(15)
F5 F 0.7005(58) 0.4502(12) 0.5511(15)
F6 F 0.9731(64) 0.4673(14) 0.5990(15)
H1 H -0.9553(23) 0.3384(5) 0.2192(7)
H2 H -0.9555(23) 0.3409(5) 0.0287(6)
H3 H -0.4630(21) 0.4008(4) 0.1247(6)
H4 H -0.0796(29) 0.4165(5) 0.2999(8)
H5 H 0.1698(31) 0.4171(5) 0.3815(8)
H6 H -0.2797(25) 0.3576(5) 0.4910(7)
H7 H -0.5232(27) 0.3566(5) 0.4064(7)
H8 H -1.5644(24) 0.2550(5) 0.2200(7)
H9 H -1.8737(23) 0.2111(5) 0.2206(7)
H10 H -1.8931(25) 0.2131(5) 0.0272(7)
H11 H -1.5795(24) 0.2560(5) 0.0299(7)
H12 H -0.5368(24) 0.3592(4) -0.1534(6)
H13 H -0.3003(23) 0.3647(4) -0.2398(6)
H14 H 0.1558(25) 0.4240(4) -0.1328(6)
H15 H -0.0791(24) 0.4194(5) -0.0454(7)
C24C C -2.1139(22) 0.1803(5) 0.1285(6)
C21C C 1.0808(24) 0.2925(5) 0.6262(7)
C33_2 C 0.0957(23) 0.3935(5) -0.2452(6)
C30_2 C -0.0518(21) 0.3942(5) 0.8079(6)
C46? C -0.8868(19) 0.2729(4) 0.8407(5)
C47? C -0.7118(14) 0.2506(3) 0.8678(5)
C48? C -0.7553(19) 0.2165(4) 0.9069(6)
C49? C -0.9736(24) 0.2048(4) 0.9189(8)
C50? C -0.1487(20) 0.2272(5) 0.8917(8)
C51? C -0.1052(18) 0.2612(5) 0.8526(7)
S1? S -0.7821(13) 0.2509(3) 0.8764(4)
O1? O -0.6914(23) 0.2733(5) 0.8183(6)
O2? O -0.7482(21) 0.2837(4) 0.9164(6)
O3? O -0.6825(20) 0.2186(4) 0.9179(6)
C52? C -0.0415(15) 0.2450(4) 0.8721(5)
F1? F -0.1706(25) 0.2665(7) 0.8090(8)
F2? F -0.1461(20) 0.2322(5) 0.9094(7)
F3? F -0.0749(23) 0.2903(5) 0.9112(8)
C54? C 0.7106(67) 0.4787(11) 0.5490(13)
C55? C 0.5199(49) 0.4806(10) 0.5860(19)
C56? C 0.5401(52) 0.4814(12) 0.6514(18)
C57? C 0.7510(66) 0.4802(13) 0.6797(13)
C58? C 0.9416(48) 0.4782(11) 0.6426(18)
C59? C 0.9214(53) 0.4775(11) 0.5773(17)
H28? H -0.8576(19) 0.2958(4) 0.8143(5)
H29? H -0.5647(18) 0.2585(5) 0.8598(7)
H30? H -0.6374(26) 0.2014(5) 0.9251(8)
H31? H -0.0029(33) 0.1819(6) 0.9452(10)
H32? H -0.2958(25) 0.2193(7) 0.8998(10)
H33? H -0.2231(24) 0.2763(6) 0.8343(9)
H34? H 0.6971(67) 0.4781(11) 0.5052(13)
H35? H 0.3789(57) 0.4814(14) 0.5670(26)
H36? H 0.4126(65) 0.4827(17) 0.6761(24)
H37? H 0.7645(94) 0.4807(19) 0.7234(13)
H38? H 0.0827(56) 0.4775(16) 0.6616(24)
H39? H 0.0490(65) 0.4762(17) 0.5525(23)
loop_
_geom_bond_atom_site_label_1
_geom_bond_atom_site_label_2
_geom_bond_site_symmetry_1
_geom_bond_site_symmetry_2
Ag1 N1 1_555 1_555
N1 C15 1_555 1_555
N2 Ag1 1_555 1_555
N3 Ag1 1_555 1_555
C1 C2 1_555 1_555
C2 C3 1_555 1_555
C3 C4 1_555 1_555
C4 C5 1_555 1_555
C5 C6 1_555 1_555
C6 C1 1_555 1_555
C7 C1 1_555 1_555
C8 C7 1_555 1_555
C9 C8 1_555 1_555
C10 C9 1_555 1_555
C11 C10 1_555 1_555
C12 C11 1_555 1_555
C13 C12 1_555 1_555
C14 C9 1_555 1_555
C15 C12 1_555 1_555
C16 C3 1_555 1_555
C17 C16 1_555 1_555
C18 C17 1_555 1_555
C19 C18 1_555 1_555
C20 C19 1_555 1_555
C21 C20 1_555 1_555
C22 C21 1_555 1_555
C23 C18 1_555 1_555
C24 N2 1_555 1_555
C25 C5 1_555 1_555
C26 C25 1_555 1_555
C27 C26 1_555 1_555
C28 C27 1_555 1_555
C29 C28 1_555 1_555
C30 C29 1_555 1_555
C31 C30 1_555 1_555
C32 C27 1_555 1_555
C33 N3 1_555 1_555
C34 C35 1_555 1_555
C35 C36 1_555 1_555
C36 C37 1_555 1_555
C37 C38 1_555 1_555
C38 C39 1_555 1_555
C39 C34 1_555 1_555
C40 C41 1_555 1_555
C41 C42 1_555 1_555
C42 C43 1_555 1_555
C43 C44 1_555 1_555
C44 C45 1_555 1_555
C45 C40 1_555 1_555
S2 O4 1_555 1_555
O5 S2 1_555 1_555
O6 Ag1 1_555 1_555
C53 S2 1_555 1_555
F4 C53 1_555 1_555
F5 C53 1_555 1_555
F6 C53 1_555 1_555
H1 C2 1_555 1_555
H2 C4 1_555 1_555
H3 C6 1_555 1_555
H4 C10 1_555 1_555
H5 C11 1_555 1_555
H6 C13 1_555 1_555
H7 C14 1_555 1_555
H8 C19 1_555 1_555
H9 C20 1_555 1_555
H10 C22 1_555 1_555
H11 C23 1_555 1_555
H12 C28 1_555 1_555
H13 C29 1_555 1_555
H14 C31 1_555 1_555
H15 C32 1_555 1_555
H16 C34 1_555 1_555
H17 C35 1_555 1_555
H18 C36 1_555 1_555
H19 C37 1_555 1_555
H20 C38 1_555 1_555
H21 C39 1_555 1_555
H22 C40 1_555 1_555
H23 C41 1_555 1_555
H24 C42 1_555 1_555
H25 C43 1_555 1_555
H26 C44 1_555 1_555
H27 C45 1_555 1_555
C24C C21 1_555 1_555
C21C C24 1_555 1_555
C33_2 C30 1_555 1_555
C30_2 C33 1_555 1_555
C13 C14 1_555 1_555
C22 C23 1_555 1_555
C31 C32 1_555 1_555
S2 O6 1_555 1_555

#END
