
#######################################################################
#
#                 Cambridge Crystallographic Data Centre
#                                CCDC 
#
#######################################################################
#
# If this CIF has been generated from an entry in the Cambridge 
# Structural Database, then it will include bibliographic, chemical, 
# crystal, experimental, refinement or atomic coordinate data resulting 
# from the CCDC's data processing and validation procedures.
#
#######################################################################

data_ZACHOA
_symmetry_cell_setting           triclinic
_symmetry_space_group_name_H-M   'P -1'
_symmetry_Int_Tables_number      2
_space_group_name_Hall           '-P 1'
loop_
_symmetry_equiv_pos_site_id
_symmetry_equiv_pos_as_xyz
1 x,y,z
2 -x,-y,-z
_cell_length_a                   7.533(2)
_cell_length_b                   10.788(4)
_cell_length_c                   13.014(4)
_cell_angle_alpha                98.79(3)
_cell_angle_beta                 92.32(3)
_cell_angle_gamma                98.77(3)
_cell_volume                     1030.75
loop_
_atom_site_label
_atom_site_type_symbol
_atom_site_fract_x
_atom_site_fract_y
_atom_site_fract_z
Zn1 Zn 0.0000 0.0000 0.0000
O1 O 0.0471(3) -0.1841(2) 0.0152(2)
O2 O 0.1869(3) 0.0028(2) -0.1158(2)
C1 C 0.7890(5) -0.1589(3) -0.1966(3)
N1 N 0.2599(4) -0.0253(3) -0.2846(2)
C2 C 0.1816(5) -0.2350(3) 0.0281(3)
C3 C 0.1759(5) 0.0283(3) -0.2062(3)
C4 C 0.0711(6) 0.1217(4) -0.2446(3)
C5 C 0.0777(10) 0.0952(8) -0.3602(4)
N2 N 0.1727(4) -0.3551(3) 0.0430(2)
N3 N 0.6888(4) -0.1569(3) -0.2830(2)
C6 C 0.3757(5) -0.1772(4) 0.0293(3)
C7 C 0.3474(5) -0.3928(4) 0.0600(4)
C8 C 0.8874(6) -0.2704(4) -0.2150(3)
C9 C 0.7036(6) -0.2606(5) -0.3674(3)
C10 C 0.2210(6) 0.0173(5) -0.3839(3)
C11 C 0.8687(7) -0.3108(5) -0.3321(4)
O3 O 0.7928(3) -0.0795(2) -0.1161(2)
C12 C 0.3776(5) -0.1181(4) -0.2767(3)
C13 C 0.5693(5) -0.0660(4) -0.2929(3)
C14 C 0.0072(5) -0.4432(3) 0.0442(3)
C15 C 0.4769(6) -0.2681(4) 0.0712(5)
H1 H -0.0521(6) 0.1083(4) -0.2245(3)
H2 H 0.1262(6) 0.2083(4) -0.2172(3)
H3 H -0.0374(10) 0.0497(8) -0.3918(4)
H4 H 0.1039(10) 0.1742(8) -0.3876(4)
H5 H 0.4091(5) -0.1670(4) -0.0405(3)
H6 H 0.3991(5) -0.0948(4) 0.0735(3)
H7 H 0.3735(5) -0.4526(4) 0.0013(4)
H8 H 0.3529(5) -0.4308(4) 0.1228(4)
H9 H 1.0130(6) -0.2459(4) -0.1904(3)
H10 H 0.8333(6) -0.3385(4) -0.1799(3)
H11 H 0.5977(6) -0.3257(5) -0.3750(3)
H12 H 0.7197(6) -0.2296(5) -0.4331(3)
H13 H 0.1792(6) -0.0544(5) -0.4383(3)
H14 H 0.3268(6) 0.0676(5) -0.4054(3)
H15 H 0.8527(7) -0.4026(5) -0.3500(4)
H16 H 0.9742(7) -0.2743(5) -0.3640(4)
H17 H 0.3369(5) -0.1929(4) -0.3285(3)
H18 H 0.3715(5) -0.1436(4) -0.2085(3)
H19 H 0.6088(5) 0.0099(4) -0.2422(3)
H20 H 0.5755(5) -0.0422(4) -0.3618(3)
H21 H -0.0948(5) -0.3994(3) 0.0369(3)
H22 H 0.0032(5) -0.4737(3) 0.1106(3)
H23 H 0.5162(6) -0.2378(4) 0.1438(5)
H24 H 0.5819(6) -0.2791(4) 0.0321(5)
O1A O -0.0471(3) 0.1841(2) -0.0152(2)
O2A O -0.1869(3) -0.0028(2) 0.1158(2)
O3_2 O -0.2072(3) -0.0795(2) -0.1161(2)
C14A C -0.0072(5) -0.5568(3) -0.0442(3)
C2A C -0.1816(5) 0.2350(3) -0.0281(3)
N2A N -0.1727(4) -0.6449(3) -0.0430(2)
H21A H 0.0948(5) -0.6006(3) -0.0369(3)
H22A H -0.0032(5) -0.5263(3) -0.1106(3)
N2A_2 N -0.1727(4) 0.3551(3) -0.0430(2)
C6A C -0.3757(5) 0.1772(4) -0.0293(3)
C2A_2 C -0.1816(5) -0.7650(3) -0.0281(3)
C7A C -0.3474(5) -0.6072(4) -0.0600(4)
C15A C -0.4769(6) 0.2681(4) -0.0712(5)
H5A H -0.4091(5) 0.1670(4) 0.0405(3)
H6A H -0.3991(5) 0.0948(4) -0.0735(3)
C15A_2 C -0.4769(6) -0.7319(4) -0.0712(5)
H7A H -0.3735(5) -0.5474(4) -0.0013(4)
H8A H -0.3529(5) -0.5692(4) -0.1228(4)
C7A_2 C -0.3474(5) 0.3928(4) -0.0600(4)
H23A H -0.5162(6) 0.2378(4) -0.1438(5)
H24A H -0.5819(6) 0.2791(4) -0.0321(5)
C14A_2 C -0.0072(5) 0.4432(3) -0.0442(3)
O3A O 0.2072(3) 0.0795(2) 0.1161(2)
O1A_2 O -0.0471(3) -0.8159(2) -0.0152(2)
C6A_2 C -0.3757(5) -0.8228(4) -0.0293(3)
H23A_2 H -0.5162(6) -0.7622(4) -0.1438(5)
H24A_2 H -0.5819(6) -0.7209(4) -0.0321(5)
H7A_2 H -0.3735(5) 0.4526(4) -0.0013(4)
H8A_2 H -0.3529(5) 0.4308(4) -0.1228(4)
C14_2 C 0.0072(5) 0.5568(3) 0.0442(3)
H21A_2 H 0.0948(5) 0.3994(3) -0.0369(3)
H22A_2 H -0.0032(5) 0.4737(3) -0.1106(3)
Zn1_2 Zn 1.0000 0.0000 0.0000
Zn1_3 Zn 0.0000 -1.0000 0.0000
H5A_2 H -0.4091(5) -0.8330(4) 0.0405(3)
H6A_2 H -0.3991(5) -0.9052(4) -0.0735(3)
N2_2 N 0.1727(4) 0.6449(3) 0.0430(2)
H21_2 H -0.0948(5) 0.6006(3) 0.0369(3)
H22_2 H 0.0032(5) 0.5263(3) 0.1106(3)
C2_2 C 0.1816(5) 0.7650(3) 0.0281(3)
C7_2 C 0.3474(5) 0.6072(4) 0.0600(4)
O1_2 O 0.0471(3) 0.8159(2) 0.0152(2)
C6_2 C 0.3757(5) 0.8228(4) 0.0293(3)
C15_2 C 0.4769(6) 0.7319(4) 0.0712(5)
H7_2 H 0.3735(5) 0.5474(4) 0.0013(4)
H8_2 H 0.3529(5) 0.5692(4) 0.1228(4)
Zn1_4 Zn 0.0000 1.0000 0.0000
H5_2 H 0.4091(5) 0.8330(4) -0.0405(3)
H6_2 H 0.3991(5) 0.9052(4) 0.0735(3)
H23_2 H 0.5162(6) 0.7622(4) 0.1438(5)
H24_2 H 0.5819(6) 0.7209(4) 0.0321(5)
C16 C 0.2271(10) 0.4709(7) -0.3790(7)
C17 C 0.2984(10) 0.5305(6) -0.2767(6)
N4 N 0.3550(14) 0.5821(8) -0.1985(6)
H25 H 0.1083(27) 0.4254(38) -0.3751(8)
H26 H 0.3036(36) 0.4129(34) -0.4080(16)
H27 H 0.2215(60) 0.5346(8) -0.4227(12)
Cl1 Cl 0.2971(8) 0.7011(7) 0.3927(4)
O4 O 0.4084(13) 0.6138(12) 0.4001(10)
O5 O 0.1690(10) 0.6931(7) 0.4706(5)
O6 O 0.1857(14) 0.6575(12) 0.3059(8)
O7 O 0.3690(24) 0.8203(11) 0.4107(14)
Cl2? Cl 0.3363(28) 0.7061(23) 0.3696(15)
O8? O 0.2322(32) 0.7357(26) 0.2963(15)
O9? O 0.3838(46) 0.8062(27) 0.4538(14)
O10? O 0.5016(24) 0.7301(21) 0.3225(18)
O11? O 0.3192(44) 0.6019(27) 0.4045(33)
loop_
_geom_bond_atom_site_label_1
_geom_bond_atom_site_label_2
_geom_bond_site_symmetry_1
_geom_bond_site_symmetry_2
Zn1 O1 1_555 1_555
O1 C2 1_555 1_555
O2 Zn1 1_555 1_555
C1 N3 1_555 1_555
N1 C3 1_555 1_555
C2 N2 1_555 1_555
C3 O2 1_555 1_555
C4 C3 1_555 1_555
C5 C4 1_555 1_555
N2 C7 1_555 1_555
N3 C9 1_555 1_555
C6 C2 1_555 1_555
C7 C15 1_555 1_555
C8 C1 1_555 1_555
C9 C11 1_555 1_555
C10 N1 1_555 1_555
C11 C8 1_555 1_555
O3 C1 1_555 1_555
C12 N1 1_555 1_555
C13 N3 1_555 1_555
C14 N2 1_555 1_555
C15 C6 1_555 1_555
C16 C17 1_555 1_555
C17 N4 1_555 1_555
Cl1 O4 1_555 1_555
O5 Cl1 1_555 1_555
O6 Cl1 1_555 1_555
O7 Cl1 1_555 1_555
H1 C4 1_555 1_555
H2 C4 1_555 1_555
H3 C5 1_555 1_555
H4 C5 1_555 1_555
H5 C6 1_555 1_555
H6 C6 1_555 1_555
H7 C7 1_555 1_555
H8 C7 1_555 1_555
H9 C8 1_555 1_555
H10 C8 1_555 1_555
H11 C9 1_555 1_555
H12 C9 1_555 1_555
H13 C10 1_555 1_555
H14 C10 1_555 1_555
H15 C11 1_555 1_555
H16 C11 1_555 1_555
H17 C12 1_555 1_555
H18 C12 1_555 1_555
H19 C13 1_555 1_555
H20 C13 1_555 1_555
H21 C14 1_555 1_555
H22 C14 1_555 1_555
H23 C15 1_555 1_555
H24 C15 1_555 1_555
H25 C16 1_555 1_555
H26 C16 1_555 1_555
H27 C16 1_555 1_555
O1A Zn1 1_555 1_555
O2A Zn1 1_555 1_555
O3_2 Zn1 1_555 1_555
C14A C14 1_555 1_555
C2A O1A 1_555 1_555
N2A C14A 1_555 1_555
H21A C14A 1_555 1_555
H22A C14A 1_555 1_555
N2A_2 C2A 1_555 1_555
C6A C2A 1_555 1_555
C2A_2 N2A 1_555 1_555
C7A N2A 1_555 1_555
C15A C6A 1_555 1_555
H5A C6A 1_555 1_555
H6A C6A 1_555 1_555
C15A_2 C7A 1_555 1_555
H7A C7A 1_555 1_555
H8A C7A 1_555 1_555
C7A_2 N2A_2 1_555 1_555
H23A C15A 1_555 1_555
H24A C15A 1_555 1_555
C14A_2 N2A_2 1_555 1_555
O3A Zn1 1_555 1_555
O1A_2 C2A_2 1_555 1_555
C6A_2 C2A_2 1_555 1_555
H23A_2 C15A_2 1_555 1_555
H24A_2 C15A_2 1_555 1_555
H7A_2 C7A_2 1_555 1_555
H8A_2 C7A_2 1_555 1_555
C14_2 C14A_2 1_555 1_555
H21A_2 C14A_2 1_555 1_555
H22A_2 C14A_2 1_555 1_555
Zn1_2 O3 1_555 1_555
Zn1_3 O1A_2 1_555 1_555
H5A_2 C6A_2 1_555 1_555
H6A_2 C6A_2 1_555 1_555
N2_2 C14_2 1_555 1_555
H21_2 C14_2 1_555 1_555
H22_2 C14_2 1_555 1_555
C2_2 N2_2 1_555 1_555
C7_2 N2_2 1_555 1_555
O1_2 C2_2 1_555 1_555
C6_2 C2_2 1_555 1_555
C15_2 C7_2 1_555 1_555
H7_2 C7_2 1_555 1_555
H8_2 C7_2 1_555 1_555
Zn1_4 O1_2 1_555 1_555
H5_2 C6_2 1_555 1_555
H6_2 C6_2 1_555 1_555
H23_2 C15_2 1_555 1_555
H24_2 C15_2 1_555 1_555
C5 C10 1_555 1_555
C12 C13 1_555 1_555
C15A C7A_2 1_555 1_555
C15A_2 C6A_2 1_555 1_555
C6_2 C15_2 1_555 1_555

#END
