
#######################################################################
#
#                 Cambridge Crystallographic Data Centre
#                                CCDC 
#
#######################################################################
#
# If this CIF has been generated from an entry in the Cambridge 
# Structural Database, then it will include bibliographic, chemical, 
# crystal, experimental, refinement or atomic coordinate data resulting 
# from the CCDC's data processing and validation procedures.
#
#######################################################################

data_ZACWEF
_symmetry_cell_setting           monoclinic
_symmetry_space_group_name_H-M   'C 2/c'
_symmetry_Int_Tables_number      15
_space_group_name_Hall           '-C 2yn'
loop_
_symmetry_equiv_pos_site_id
_symmetry_equiv_pos_as_xyz
1 x,y,z
2 -x,y,1/2-z
3 1/2+x,1/2+y,z
4 1/2-x,1/2+y,1/2-z
5 -x,-y,-z
6 x,-y,1/2+z
7 1/2-x,1/2-y,-z
8 1/2+x,1/2-y,1/2+z
_cell_length_a                   22.789(5)
_cell_length_b                   7.278(1)
_cell_length_c                   17.729(4)
_cell_angle_alpha                90
_cell_angle_beta                 122.31(3)
_cell_angle_gamma                90
_cell_volume                     2485.22
loop_
_atom_site_label
_atom_site_type_symbol
_atom_site_fract_x
_atom_site_fract_y
_atom_site_fract_z
Zn1 Zn 0.2067(1) 0.0356(1) 0.2088(1)
Cl1 Cl 0.1568(1) -0.0549(1) 0.2940(1)
S1 S 0.3109(1) -0.1384(1) 0.2937(1)
N1 N 0.2439(1) 0.0795(3) 0.1163(2)
N2 N 0.1249(1) -0.0764(3) 0.0853(2)
C1 C 0.1257(2) -0.0293(4) 0.0128(2)
C2 C 0.1827(2) 0.0977(5) 0.0263(2)
C3 C 0.0734(2) -0.1818(5) 0.0756(2)
C4 C 0.0197(2) -0.2417(5) -0.0072(3)
C5 C 0.0745(2) -0.0903(5) -0.0717(2)
C6 C 0.3461(1) -0.0936(4) 0.2241(2)
C7 C 0.0208(2) -0.1936(5) -0.0813(2)
C8 C 0.2894(2) -0.0732(4) 0.1267(2)
H1 H 0.2700(1) 0.1919(3) 0.1322(2)
H2 H 0.1950(2) 0.0682(5) -0.0162(2)
H3 H 0.1666(2) 0.2225(5) 0.0164(2)
H4 H 0.0738(2) -0.2186(5) 0.1279(2)
H5 H -0.0173(2) -0.3152(5) -0.0126(3)
H6 H 0.0775(2) -0.0612(5) -0.1224(2)
H7 H 0.3766(1) -0.1920(4) 0.2308(2)
H8 H 0.3729(1) 0.0176(4) 0.2439(2)
H9 H -0.0162(2) -0.2310(5) -0.1396(2)
H10 H 0.3096(2) -0.0504(4) 0.0919(2)
H11 H 0.2632(2) -0.1852(4) 0.1059(2)
S1C S 0.1891(1) 0.3616(1) 0.2063(1)
Zn1C Zn 0.2933(1) -0.4644(1) 0.2912(1)
Cl2 Cl 0.0386(1) -0.6045(2) -0.1535(1)
C9 C 0.0000 -0.7390(7) -0.2500
H12 H -0.0346 -0.8165(7) -0.2513
Cl2A Cl -0.0386(1) -0.6045(2) -0.3465(1)
H12A H 0.0346 -0.8165(7) -0.2487
loop_
_geom_bond_atom_site_label_1
_geom_bond_atom_site_label_2
_geom_bond_site_symmetry_1
_geom_bond_site_symmetry_2
Zn1 Cl1 1_555 1_555
S1 Zn1 1_555 1_555
N1 Zn1 1_555 1_555
N2 Zn1 1_555 1_555
C1 N2 1_555 1_555
C2 N1 1_555 1_555
C3 N2 1_555 1_555
C4 C3 1_555 1_555
C5 C1 1_555 1_555
C6 S1 1_555 1_555
C7 C4 1_555 1_555
C8 N1 1_555 1_555
H1 N1 1_555 1_555
H2 C2 1_555 1_555
H3 C2 1_555 1_555
H4 C3 1_555 1_555
H5 C4 1_555 1_555
H6 C5 1_555 1_555
H7 C6 1_555 1_555
H8 C6 1_555 1_555
H9 C7 1_555 1_555
H10 C8 1_555 1_555
H11 C8 1_555 1_555
Cl2 C9 1_555 1_555
C9 H12 1_555 1_555
S1C Zn1 1_555 1_555
Zn1C S1 1_555 1_555
Cl2A C9 1_555 1_555
H12A C9 1_555 1_555
C1 C2 1_555 1_555
C5 C7 1_555 1_555
C6 C8 1_555 1_555

#END
