
#######################################################################
#
#                 Cambridge Crystallographic Data Centre
#                                CCDC 
#
#######################################################################
#
# If this CIF has been generated from an entry in the Cambridge 
# Structural Database, then it will include bibliographic, chemical, 
# crystal, experimental, refinement or atomic coordinate data resulting 
# from the CCDC's data processing and validation procedures.
#
#######################################################################

data_ZAGPIG
_symmetry_cell_setting           monoclinic
_symmetry_space_group_name_H-M   'P 21/c'
_symmetry_Int_Tables_number      14
_space_group_name_Hall           '-P 2ybc'
loop_
_symmetry_equiv_pos_site_id
_symmetry_equiv_pos_as_xyz
1 x,y,z
2 -x,1/2+y,1/2-z
3 -x,-y,-z
4 x,1/2-y,1/2+z
_cell_length_a                   7.950(3)
_cell_length_b                   13.145(7)
_cell_length_c                   15.650(7)
_cell_angle_alpha                90
_cell_angle_beta                 81.74(3)
_cell_angle_gamma                90
_cell_volume                     1618.5
loop_
_atom_site_label
_atom_site_type_symbol
_atom_site_fract_x
_atom_site_fract_y
_atom_site_fract_z
Cu1 Cu 0.40525(5) 0.10983(3) 0.98275(3)
N1 N 0.3298(3) -0.0354(2) 0.9954(2)
N2 N 0.1897(4) -0.0701(2) 1.0145(2)
N3 N 0.0575(4) -0.1068(3) 1.0336(2)
N4 N 0.4875(5) 0.2516(3) 0.9672(2)
N5 N 0.3969(5) 0.3222(3) 0.9811(2)
N6 N 0.3131(6) 0.3952(3) 0.9946(3)
N7 N 0.3292(3) 0.1359(2) 1.1085(2)
C1 C 0.1655(4) 0.1385(2) 1.1432(2)
C2 C 0.1133(4) 0.1536(3) 1.2304(2)
C3 C 0.2361(4) 0.1659(3) 1.2838(2)
C4 C 0.4074(4) 0.1644(3) 1.2479(2)
C5 C 0.4479(4) 0.1505(3) 1.1613(2)
C6 C -0.0737(4) 0.1547(3) 1.2631(2)
C7 C -0.1274(5) 0.1554(4) 1.3582(3)
O1 O -0.1755(3) 0.1548(2) 1.2124(2)
N8 N 0.4437(3) 0.0951(2) 0.8530(2)
C8 C 0.6014(4) 0.1055(3) 0.8101(2)
C9 C 0.6375(4) 0.0983(2) 0.7215(2)
C10 C 0.5041(4) 0.0820(3) 0.6745(2)
C11 C 0.3409(5) 0.0732(3) 0.7186(3)
C12 C 0.3151(4) 0.0787(3) 0.8066(2)
C13 C 0.8203(5) 0.1070(3) 0.6805(2)
C14 C 0.8575(5) 0.1242(4) 0.5857(3)
O2 O 0.9327(3) 0.0987(2) 0.7257(2)
H1 H 0.070 0.129 1.101
H2 H 0.200 0.177 1.352
H3 H 0.506 0.174 1.288
H4 H 0.580 0.151 1.133
H5 H -0.081(5) 0.224(2) 1.386(2)
H6 H -0.069(5) 0.093(2) 1.388(2)
H7 H -0.260(2) 0.153(3) 1.379(2)
H8 H 0.705 0.120 0.846
H9 H 0.528 0.077 0.605
H10 H 0.235 0.062 0.683
H11 H 0.188 0.070 0.840
H12 H 0.819(5) 0.061(2) 0.548(2)
H13 H 0.799(5) 0.190(2) 0.565(2)
H14 H 0.992(2) 0.130(3) 0.564(2)
N1B N 0.6702(3) 0.0354(2) 1.0046(2)
Cu1B Cu 0.59475(5) -0.10983(3) 1.01725(3)
N2B N 0.8103(4) 0.0701(2) 0.9855(2)
N4B N 0.5125(5) -0.2516(3) 1.0328(2)
N7B N 0.6708(3) -0.1359(2) 0.8915(2)
N8B N 0.5563(3) -0.0951(2) 1.1470(2)
N3B N 0.9425(4) 0.1068(3) 0.9664(2)
N5B N 0.6031(5) -0.3222(3) 1.0189(2)
C1B C 0.8345(4) -0.1385(2) 0.8568(2)
C5B C 0.5521(4) -0.1505(3) 0.8387(2)
C8B C 0.3986(4) -0.1055(3) 1.1899(2)
C12B C 0.6849(4) -0.0787(3) 1.1934(2)
N6B N 0.6869(6) -0.3952(3) 1.0054(3)
C2B C 0.8867(4) -0.1536(3) 0.7696(2)
H1B H 0.930 -0.129 0.899
C4B C 0.5926(4) -0.1644(3) 0.7521(2)
H4B H 0.420 -0.151 0.867
C9B C 0.3625(4) -0.0983(2) 1.2785(2)
H8B H 0.295 -0.120 1.154
C11B C 0.6591(5) -0.0732(3) 1.2814(3)
H11B H 0.812 -0.070 1.160
C3B C 0.7639(4) -0.1659(3) 0.7162(2)
C6B C 1.0737(4) -0.1547(3) 0.7369(2)
H3B H 0.494 -0.174 0.712
C10B C 0.4959(4) -0.0820(3) 1.3255(2)
C13B C 0.1797(5) -0.1070(3) 1.3195(2)
H10B H 0.765 -0.062 1.317
H2B H 0.800 -0.177 0.648
C7B C 1.1274(5) -0.1554(4) 0.6418(3)
O1B O 1.1755(3) -0.1548(2) 0.7876(2)
H9B H 0.472 -0.077 1.395
C14B C 0.1425(5) -0.1242(4) 1.4143(3)
O2B O 0.0673(3) -0.0987(2) 1.2743(2)
H5B H 1.081(5) -0.224(2) 0.614(2)
H6B H 1.069(5) -0.093(2) 0.612(2)
H7B H 1.260(2) -0.153(3) 0.621(2)
H12B H 0.181(5) -0.061(2) 1.452(2)
H13B H 0.201(5) -0.190(2) 1.435(2)
H14B H 0.008(2) -0.130(3) 1.436(2)
loop_
_geom_bond_atom_site_label_1
_geom_bond_atom_site_label_2
_geom_bond_site_symmetry_1
_geom_bond_site_symmetry_2
Cu1 N1 1_555 1_555
N1 N2 1_555 1_555
N2 N3 1_555 1_555
N4 Cu1 1_555 1_555
N5 N4 1_555 1_555
N6 N5 1_555 1_555
N7 Cu1 1_555 1_555
C1 N7 1_555 1_555
C2 C1 1_555 1_555
C3 C2 1_555 1_555
C4 C3 1_555 1_555
C5 N7 1_555 1_555
C6 C2 1_555 1_555
C7 C6 1_555 1_555
O1 C6 1_555 1_555
N8 Cu1 1_555 1_555
C8 N8 1_555 1_555
C9 C8 1_555 1_555
C10 C9 1_555 1_555
C11 C10 1_555 1_555
C12 N8 1_555 1_555
C13 C9 1_555 1_555
C14 C13 1_555 1_555
O2 C13 1_555 1_555
H1 C1 1_555 1_555
H2 C3 1_555 1_555
H3 C4 1_555 1_555
H4 C5 1_555 1_555
H5 C7 1_555 1_555
H6 C7 1_555 1_555
H7 C7 1_555 1_555
H8 C8 1_555 1_555
H9 C10 1_555 1_555
H10 C11 1_555 1_555
H11 C12 1_555 1_555
H12 C14 1_555 1_555
H13 C14 1_555 1_555
H14 C14 1_555 1_555
N1B Cu1 1_555 1_555
Cu1B N1 1_555 1_555
N2B N1B 1_555 1_555
N4B Cu1B 1_555 1_555
N7B Cu1B 1_555 1_555
N8B Cu1B 1_555 1_555
N3B N2B 1_555 1_555
N5B N4B 1_555 1_555
C1B N7B 1_555 1_555
C5B N7B 1_555 1_555
C8B N8B 1_555 1_555
C12B N8B 1_555 1_555
N6B N5B 1_555 1_555
C2B C1B 1_555 1_555
H1B C1B 1_555 1_555
C4B C5B 1_555 1_555
H4B C5B 1_555 1_555
C9B C8B 1_555 1_555
H8B C8B 1_555 1_555
C11B C12B 1_555 1_555
H11B C12B 1_555 1_555
C3B C2B 1_555 1_555
C6B C2B 1_555 1_555
H3B C4B 1_555 1_555
C10B C9B 1_555 1_555
C13B C9B 1_555 1_555
H10B C11B 1_555 1_555
H2B C3B 1_555 1_555
C7B C6B 1_555 1_555
O1B C6B 1_555 1_555
H9B C10B 1_555 1_555
C14B C13B 1_555 1_555
O2B C13B 1_555 1_555
H5B C7B 1_555 1_555
H6B C7B 1_555 1_555
H7B C7B 1_555 1_555
H12B C14B 1_555 1_555
H13B C14B 1_555 1_555
H14B C14B 1_555 1_555
C4 C5 1_555 1_555
C11 C12 1_555 1_555
N1B Cu1B 1_555 1_555
C4B C3B 1_555 1_555
C11B C10B 1_555 1_555

#END
