
#######################################################################
#
#                 Cambridge Crystallographic Data Centre
#                                CCDC 
#
#######################################################################
#
# If this CIF has been generated from an entry in the Cambridge 
# Structural Database, then it will include bibliographic, chemical, 
# crystal, experimental, refinement or atomic coordinate data resulting 
# from the CCDC's data processing and validation procedures.
#
#######################################################################

data_ZAKDAQ
_symmetry_cell_setting           monoclinic
_symmetry_space_group_name_H-M   'P 21/n'
_symmetry_Int_Tables_number      14
_space_group_name_Hall           '-P 2yn'
loop_
_symmetry_equiv_pos_site_id
_symmetry_equiv_pos_as_xyz
1 x,y,z
2 1/2-x,1/2+y,1/2-z
3 -x,-y,-z
4 1/2+x,1/2-y,1/2+z
_cell_length_a                   4.613(1)
_cell_length_b                   8.091(2)
_cell_length_c                   19.056(3)
_cell_angle_alpha                90
_cell_angle_beta                 90.04(1)
_cell_angle_gamma                90
_cell_volume                     711.242
loop_
_atom_site_label
_atom_site_type_symbol
_atom_site_fract_x
_atom_site_fract_y
_atom_site_fract_z
Ba1 Ba 0.0000 0.5000 0.0000
O1 O 0.0014(9) 0.2779(4) 0.1062(2)
C1 C 0.0011(19) 0.3282(8) 0.1782(3)
H1 H -0.1678(19) 0.3941(8) 0.1873(3)
H2 H 0.1702(19) 0.3930(8) 0.1884(3)
C2 C 0.0011(23) 0.1817(9) 0.2212(3)
H3 H -0.1707(23) 0.1799(9) 0.2496(3)
H4 H 0.1664(23) 0.1804(9) 0.2517(3)
C3 C -0.0009(27) 0.0402(8) 0.1756(4)
H5 H -0.1687(27) -0.0273(8) 0.1838(4)
H6 H 0.1691(27) -0.0247(8) 0.1847(4)
C4 C 0.0001(20) 0.1028(7) 0.1024(3)
H7 H 0.1700(20) 0.0647(7) 0.0782(3)
H8 H -0.1683(20) 0.0648(7) 0.0776(3)
B1 B -0.4995(13) 0.6814(8) 0.0726(3)
H9 H -0.297(12) 0.7303(68) 0.0985(25)
H10 H -0.513(12) 0.5558(73) 0.0845(27)
H11 H -0.497(11) 0.7043(82) 0.0196(32)
H12 H -0.683(12) 0.7400(68) 0.0938(25)
O1B O -0.0014(9) 0.7221(4) -0.1062(2)
C1B C -0.0011(19) 0.6718(8) -0.1782(3)
H1B H 0.1678(19) 0.6059(8) -0.1873(3)
H2B H -0.1702(19) 0.6070(8) -0.1884(3)
C2B C -0.0011(23) 0.8183(9) -0.2212(3)
H3B H 0.1707(23) 0.8201(9) -0.2496(3)
H4B H -0.1664(23) 0.8196(9) -0.2517(3)
C3B C 0.0009(27) 0.9598(8) -0.1756(4)
H5B H 0.1687(27) 1.0273(8) -0.1838(4)
H6B H -0.1691(27) 1.0247(8) -0.1847(4)
C4B C -0.0001(20) 0.8972(7) -0.1024(3)
H7B H -0.1700(20) 0.9353(7) -0.0782(3)
H8B H 0.1683(20) 0.9352(7) -0.0776(3)
B1_2 B 0.5005(13) 0.6814(8) 0.0726(3)
H9_2 H 0.703(12) 0.7303(68) 0.0985(25)
H10_2 H 0.487(12) 0.5558(73) 0.0845(27)
H11_2 H 0.503(11) 0.7043(82) 0.0196(32)
H12_2 H 0.317(12) 0.7400(68) 0.0938(25)
Ba1B Ba -1.0000 0.5000 0.0000
Ba1B_2 Ba 1.0000 0.5000 0.0000
B1B B -0.5005(13) 0.3186(8) -0.0726(3)
B1B_2 B 0.4995(13) 0.3186(8) -0.0726(3)
H9B H 0.297(12) 0.2697(68) -0.0985(25)
H10B H -0.487(12) 0.4442(73) -0.0845(27)
H10B_2 H 0.513(12) 0.4442(73) -0.0845(27)
H11B H -0.503(11) 0.2957(82) -0.0196(32)
H11B_2 H 0.497(11) 0.2957(82) -0.0196(32)
H9_3 H -1.297(12) 0.7303(68) 0.0985(25)
H9B_2 H -0.703(12) 0.2697(68) -0.0985(25)
H10_3 H -1.513(12) 0.5558(73) 0.0845(27)
H10B_3 H -1.487(12) 0.4442(73) -0.0845(27)
H11_3 H -1.497(11) 0.7043(82) 0.0196(32)
H11B_3 H -1.503(11) 0.2957(82) -0.0196(32)
H9B_3 H 1.297(12) 0.2697(68) -0.0985(25)
H10_4 H 1.487(12) 0.5558(73) 0.0845(27)
H10B_4 H 1.513(12) 0.4442(73) -0.0845(27)
H11_4 H 1.503(11) 0.7043(82) 0.0196(32)
H11B_4 H 1.497(11) 0.2957(82) -0.0196(32)
H12B H -0.317(12) 0.2600(68) -0.0938(25)
H12B_2 H 0.683(12) 0.2600(68) -0.0938(25)
loop_
_geom_bond_atom_site_label_1
_geom_bond_atom_site_label_2
_geom_bond_site_symmetry_1
_geom_bond_site_symmetry_2
Ba1 O1 1_555 1_555
O1 C1 1_555 1_555
C1 H1 1_555 1_555
H2 C1 1_555 1_555
C2 C1 1_555 1_555
H3 C2 1_555 1_555
H4 C2 1_555 1_555
C3 C2 1_555 1_555
H5 C3 1_555 1_555
H6 C3 1_555 1_555
C4 O1 1_555 1_555
H7 C4 1_555 1_555
H8 C4 1_555 1_555
B1 H9 1_555 1_555
H9 Ba1 1_555 1_555
H10 Ba1 1_555 1_555
H11 Ba1 1_555 1_555
H12 B1 1_555 1_555
O1B Ba1 1_555 1_555
C1B O1B 1_555 1_555
H1B C1B 1_555 1_555
H2B C1B 1_555 1_555
C2B C1B 1_555 1_555
H3B C2B 1_555 1_555
H4B C2B 1_555 1_555
C3B C2B 1_555 1_555
H5B C3B 1_555 1_555
H6B C3B 1_555 1_555
C4B O1B 1_555 1_555
H7B C4B 1_555 1_555
H8B C4B 1_555 1_555
B1_2 H9_2 1_555 1_555
H9_2 Ba1B_2 1_555 1_555
H10_2 Ba1 1_555 1_555
H11_2 Ba1 1_555 1_555
H12_2 B1_2 1_555 1_555
Ba1B H10 1_555 1_555
Ba1B_2 H10_2 1_555 1_555
B1B H10B 1_555 1_555
B1B_2 H9B 1_555 1_555
H9B Ba1 1_555 1_555
H10B Ba1 1_555 1_555
H10B_2 Ba1 1_555 1_555
H11B Ba1 1_555 1_555
H11B_2 Ba1 1_555 1_555
H9_3 Ba1B 1_555 1_555
H9B_2 Ba1B 1_555 1_555
H10_3 Ba1B 1_555 1_555
H10B_3 Ba1B 1_555 1_555
H11_3 Ba1B 1_555 1_555
H11B_3 Ba1B 1_555 1_555
H9B_3 Ba1B_2 1_555 1_555
H10_4 Ba1B_2 1_555 1_555
H10B_4 Ba1B_2 1_555 1_555
H11_4 Ba1B_2 1_555 1_555
H11B_4 Ba1B_2 1_555 1_555
H12B B1B 1_555 1_555
H12B_2 B1B_2 1_555 1_555
C3 C4 1_555 1_555
B1 H10 1_555 1_555
B1 H11 1_555 1_555
H11 Ba1B 1_555 1_555
C3B C4B 1_555 1_555
B1_2 H10_2 1_555 1_555
B1_2 H11_2 1_555 1_555
H11_2 Ba1B_2 1_555 1_555
Ba1B H10B 1_555 1_555
Ba1B H11B 1_555 1_555
Ba1B_2 H10B_2 1_555 1_555
Ba1B_2 H11B_2 1_555 1_555
B1B H11B 1_555 1_555
B1B H9B_2 1_555 1_555
B1B_2 H10B_2 1_555 1_555
B1B_2 H11B_2 1_555 1_555

#END
