
#######################################################################
#
#                 Cambridge Crystallographic Data Centre
#                                CCDC 
#
#######################################################################
#
# If this CIF has been generated from an entry in the Cambridge 
# Structural Database, then it will include bibliographic, chemical, 
# crystal, experimental, refinement or atomic coordinate data resulting 
# from the CCDC's data processing and validation procedures.
#
#######################################################################

data_ZAKMAZ10
_symmetry_cell_setting           monoclinic
_symmetry_space_group_name_H-M   'P 21/c'
_symmetry_Int_Tables_number      14
_space_group_name_Hall           '-P 2ybc'
loop_
_symmetry_equiv_pos_site_id
_symmetry_equiv_pos_as_xyz
1 x,y,z
2 -x,1/2+y,1/2-z
3 -x,-y,-z
4 x,1/2-y,1/2+z
_cell_length_a                   13.750(4)
_cell_length_b                   12.456(2)
_cell_length_c                   15.646(2)
_cell_angle_alpha                90
_cell_angle_beta                 102.91(1)
_cell_angle_gamma                90
_cell_volume                     2611.95
loop_
_atom_site_label
_atom_site_type_symbol
_atom_site_fract_x
_atom_site_fract_y
_atom_site_fract_z
Fe1 Fe 0.5000 0.00000 -0.5000
Mn1 Mn 0.46382(7) -0.16083(7) 0.17733(6)
K1 K 0.5000 0.00000 0.00000
O1 O 0.3208(3) 0.1298(3) 0.0534(3)
O2 O 0.3827(3) -0.0561(3) 0.1117(2)
O3 O 0.5804(3) -0.0912(3) 0.1633(2)
O4 O 0.7123(3) 0.0305(3) 0.1181(3)
N1 N 0.6544(4) 0.2481(4) -0.1859(3)
N2 N 0.4624(4) 0.2821(4) -0.2395(3)
N3 N 0.4672(4) -0.0796(4) -0.6908(3)
N4 N 0.4700(4) -0.2376(4) -0.4528(3)
N5 N 0.7290(5) -0.0185(5) -0.4661(5)
C1 C 0.7039(5) -0.2415(5) -0.0354(4)
C2 C 0.7489(4) -0.0654(5) -0.0770(4)
C3 C 0.8477(5) -0.0916(5) -0.0709(4)
C4 C 0.9117(5) -0.0177(7) -0.0979(5)
C5 C 0.8768(5) 0.0807(6) -0.1290(5)
C6 C 0.7765(4) 0.1096(5) -0.1361(4)
C7 C 0.7124(4) 0.0365(4) -0.1091(4)
C8 C 0.7454(5) 0.2153(5) -0.1688(4)
C9 C 0.6271(5) 0.3577(5) -0.2173(4)
C10 C 0.5264(5) 0.3516(5) -0.2796(4)
C11 C 0.3716(5) 0.3049(5) -0.2390(4)
C12 C 0.3286(4) 0.1325(5) -0.1743(4)
C13 C 0.3023(4) 0.2361(5) -0.2071(4)
C14 C 0.2036(5) 0.2726(6) -0.2142(4)
C15 C 0.1330(5) 0.2093(6) -0.1922(5)
C16 C 0.1575(5) 0.1053(6) -0.1616(4)
C17 C 0.2548(5) 0.0685(5) -0.1515(4)
C18 C 0.2147(5) -0.1091(6) -0.1091(5)
C19 C 0.4815(4) -0.0484(4) -0.6199(4)
C20 C 0.4827(4) -0.1491(5) -0.4702(4)
C21 C 0.6440(5) -0.0138(5) -0.4798(4)
Mn1B Mn 0.53618(7) 0.16083(7) -0.17733(6)
O2B O 0.6173(3) 0.0561(3) -0.1117(2)
O1B O 0.6792(3) -0.1298(3) -0.0534(3)
O3B O 0.4196(3) 0.0912(3) -0.1633(2)
Mn1C Mn 0.46382(7) -0.33917(7) -0.32267(6)
Mn1_2 Mn 0.46382(7) -0.16083(7) -0.82267(6)
K1_2 K 0.5000 0.00000 -1.00000
O2_2 O 0.3827(3) -0.0561(3) -0.8883(2)
Mn1A Mn 0.53618(7) 0.33917(7) -0.67733(6)
N4B N 0.5300(4) 0.2376(4) -0.5472(3)
C20B C 0.5173(4) 0.1491(5) -0.5298(4)
C19B C 0.5185(4) 0.0484(4) -0.3801(4)
N3B N 0.5328(4) 0.0796(4) -0.3092(3)
O4B O 0.2877(3) -0.0305(3) -0.1181(3)
N4A N 0.5300(4) 0.2624(4) -0.0472(3)
C21B C 0.3560(5) 0.0138(5) -0.5202(4)
N5B N 0.2710(5) 0.0185(5) -0.5339(5)
O1_2 O 0.3208(3) 0.1298(3) -0.9466(3)
C1B C 0.2961(5) 0.2415(5) -0.9646(4)
C2B C 0.2511(4) 0.0654(5) -0.9230(4)
C3B C 0.1523(5) 0.0916(5) -0.9291(4)
C4B C 0.0883(5) 0.0177(7) -0.9021(5)
C5B C 0.1232(5) -0.0807(6) -0.8710(5)
C6B C 0.2235(4) -0.1096(5) -0.8639(4)
C7B C 0.2876(4) -0.0365(4) -0.8909(4)
C8B C 0.2546(5) -0.2153(5) -0.8312(4)
N1B N 0.3456(4) -0.2481(4) -0.8141(3)
O3_2 O 0.5804(3) -0.0912(3) -0.8367(2)
C12B C 0.6714(4) -0.1325(5) -0.8257(4)
C13B C 0.6977(4) -0.2361(5) -0.7929(4)
C11B C 0.6284(5) -0.3049(5) -0.7610(4)
N2B N 0.5376(4) -0.2821(4) -0.7605(3)
N4C N 0.4700(4) -0.2624(4) -0.9528(3)
C10B C 0.4736(5) -0.3516(5) -0.7204(4)
C9B C 0.3729(5) -0.3577(5) -0.7827(4)
C14B C 0.7964(5) -0.2726(6) -0.7858(4)
C15B C 0.8670(5) -0.2093(6) -0.8078(5)
C16B C 0.8425(5) -0.1053(6) -0.8384(4)
C17B C 0.7452(5) -0.0685(5) -0.8485(4)
O4_2 O 0.7123(3) 0.0305(3) -0.8819(3)
C18B C 0.7853(5) 0.1091(6) -0.8909(5)
O5 O 1.0598(5) -0.1241(5) 0.6722(5)
N6 N 1.0213(5) 0.0418(6) 0.6172(5)
C22 C 0.9522(9) 0.1255(9) 0.5934(9)
C23 C 1.1183(8) 0.058(1) 0.6037(7)
C24 C 0.9975(8) -0.0457(10) 0.6498(7)
loop_
_geom_bond_atom_site_label_1
_geom_bond_atom_site_label_2
_geom_bond_site_symmetry_1
_geom_bond_site_symmetry_2
Fe1 C19 1_555 1_555
Mn1 K1 1_555 1_555
K1 O1 1_555 1_555
O2 Mn1 1_555 1_555
O3 Mn1 1_555 1_555
O4 K1 1_555 1_555
O5 C24 1_555 1_555
N1 C8 1_555 1_555
N2 C10 1_555 1_555
N3 C19 1_555 1_555
N4 C20 1_555 1_555
N5 C21 1_555 1_555
N6 C22 1_555 1_555
C1 O1B 1_555 1_555
C2 C3 1_555 1_555
C3 C4 1_555 1_555
C4 C5 1_555 1_555
C5 C6 1_555 1_555
C6 C7 1_555 1_555
C7 C2 1_555 1_555
C8 C6 1_555 1_555
C9 N1 1_555 1_555
C10 C9 1_555 1_555
C11 N2 1_555 1_555
C12 C13 1_555 1_555
C13 C11 1_555 1_555
C14 C13 1_555 1_555
C15 C14 1_555 1_555
C16 C15 1_555 1_555
C17 C12 1_555 1_555
C18 O4B 1_555 1_555
C20 Fe1 1_555 1_555
C21 Fe1 1_555 1_555
C23 N6 1_555 1_555
C24 N6 1_555 1_555
Mn1B K1 1_555 1_555
O2B K1 1_555 1_555
O1B K1 1_555 1_555
O3B K1 1_555 1_555
Mn1C N4 1_555 1_555
Mn1_2 N3 1_555 1_555
K1_2 Mn1_2 1_555 1_555
O2_2 Mn1_2 1_555 1_555
Mn1A N4B 1_555 1_555
N4B C20B 1_555 1_555
C20B Fe1 1_555 1_555
C19B Fe1 1_555 1_555
N3B Mn1B 1_555 1_555
O4B K1 1_555 1_555
N4A Mn1B 1_555 1_555
C21B Fe1 1_555 1_555
N5B C21B 1_555 1_555
O1_2 K1_2 1_555 1_555
C1B O1_2 1_555 1_555
C2B O1_2 1_555 1_555
C3B C2B 1_555 1_555
C4B C3B 1_555 1_555
C5B C4B 1_555 1_555
C6B C5B 1_555 1_555
C7B O2_2 1_555 1_555
C8B C6B 1_555 1_555
N1B Mn1_2 1_555 1_555
O3_2 Mn1_2 1_555 1_555
C12B O3_2 1_555 1_555
C13B C12B 1_555 1_555
C11B C13B 1_555 1_555
N2B Mn1_2 1_555 1_555
N4C Mn1_2 1_555 1_555
C10B N2B 1_555 1_555
C9B N1B 1_555 1_555
C14B C13B 1_555 1_555
C15B C14B 1_555 1_555
C16B C15B 1_555 1_555
C17B C12B 1_555 1_555
O4_2 K1_2 1_555 1_555
C18B O4_2 1_555 1_555
K1 O3 1_555 1_555
K1 O2 1_555 1_555
N1 Mn1B 1_555 1_555
N2 Mn1B 1_555 1_555
C2 O1B 1_555 1_555
C7 O2B 1_555 1_555
C12 O3B 1_555 1_555
C16 C17 1_555 1_555
C17 O4B 1_555 1_555
Mn1B O2B 1_555 1_555
Mn1B O3B 1_555 1_555
K1_2 O2_2 1_555 1_555
K1_2 O3_2 1_555 1_555
C19B N3B 1_555 1_555
C2B C7B 1_555 1_555
C6B C7B 1_555 1_555
C8B N1B 1_555 1_555
C11B N2B 1_555 1_555
C10B C9B 1_555 1_555
C16B C17B 1_555 1_555
C17B O4_2 1_555 1_555

#END
