
#######################################################################
#
#                 Cambridge Crystallographic Data Centre
#                                CCDC 
#
#######################################################################
#
# If this CIF has been generated from an entry in the Cambridge 
# Structural Database, then it will include bibliographic, chemical, 
# crystal, experimental, refinement or atomic coordinate data resulting 
# from the CCDC's data processing and validation procedures.
#
#######################################################################

data_ZALTOV01
_symmetry_cell_setting           monoclinic
_symmetry_space_group_name_H-M   'P 21/n'
_symmetry_Int_Tables_number      14
_space_group_name_Hall           '-P 2yn'
loop_
_symmetry_equiv_pos_site_id
_symmetry_equiv_pos_as_xyz
1 x,y,z
2 1/2-x,1/2+y,1/2-z
3 -x,-y,-z
4 1/2+x,1/2-y,1/2+z
_cell_length_a                   9.664(1)
_cell_length_b                   13.427(2)
_cell_length_c                   20.844(3)
_cell_angle_alpha                90
_cell_angle_beta                 94.74(1)
_cell_angle_gamma                90
_cell_volume                     2695.44
loop_
_atom_site_label
_atom_site_type_symbol
_atom_site_fract_x
_atom_site_fract_y
_atom_site_fract_z
Cd1 Cd -0.26753(4) -0.10065(3) -0.87683(2)
O1 O -0.0942(4) -0.2440(3) -0.8575(2)
O2 O -0.1776(4) -0.2074(3) -0.9558(2)
O3 O -1.0324(5) -1.3305(3) -0.9386(2)
O4 O -0.4043(4) 0.0533(3) -0.8767(2)
O5 O -0.3493(4) -0.0009(3) -0.9690(2)
O6 O -1.4289(5) -0.8502(3) -0.9603(2)
N1 N 0.2579(5) 0.0945(4) -0.2377(2)
N2 N -0.4495(5) -0.2071(3) -0.8695(2)
N3 N -1.0752(5) -0.9982(3) -0.8784(2)
N4 N -0.1013(5) -0.2610(4) -0.9179(2)
N5 N -0.3956(5) 0.0692(4) -0.9363(2)
C1 C -0.4261(6) -0.2977(5) -0.8447(3)
C2 C -0.5297(6) -0.3595(4) -0.8264(3)
C3 C -0.6658(6) -0.3280(4) -0.8323(3)
C4 C -0.6926(6) -0.2353(5) -0.8595(3)
C5 C -0.5833(7) -0.1781(5) -0.8778(3)
C6 C -0.7822(7) -0.3903(5) -0.8091(3)
C7 C -0.7707(6) -0.4990(4) -0.8244(3)
C8 C -0.8216(6) -0.5346(5) -0.8841(3)
C9 C -0.8063(7) -0.6332(5) -0.9012(3)
C10 C -0.7378(6) -0.6997(4) -0.8600(3)
C11 C -0.6868(7) -0.6654(5) -0.7984(3)
C12 C -0.7049(7) -0.5657(5) -0.7806(3)
C13 C -1.0686(6) -0.9111(5) -0.8461(3)
C14 C -0.9577(6) -0.8465(5) -0.8462(3)
C15 C -0.8456(6) -0.8699(4) -0.8800(3)
C16 C -0.8532(6) -0.9600(4) -0.9140(3)
C17 C -0.9672(6) -1.0205(4) -0.9126(3)
C18 C -0.7173(7) -0.8048(5) -0.8809(4)
C19 C 0.1871(7) 0.1634(5) -0.2749(3)
C20 C 0.1868(8) 0.1668(5) -0.3400(3)
C21 C 0.2610(6) 0.0980(5) -0.3727(3)
C22 C 0.3335(7) 0.0265(5) -0.3349(3)
C23 C 0.3299(6) 0.0268(5) -0.2685(3)
C24 C 0.2558(8) 0.0991(7) -0.4463(3)
C25 C 0.1229(6) 0.0475(5) -0.4749(3)
C26 C 0.0084(8) 0.1030(5) -0.4968(3)
C27 C 0.1146(7) -0.0567(5) -0.4789(3)
H1 H -0.331(6) -0.306(4) -0.835(3)
H2 H -0.503(6) -0.422(4) -0.811(3)
H3 H -0.787(6) -0.204(4) -0.863(3)
H4 H -0.605(6) -0.109(5) -0.902(3)
H5 H -0.670(6) -0.542(4) -0.732(3)
H6 H -0.633(6) -0.711(4) -0.760(3)
H7 H -0.867(6) -0.491(4) -0.913(3)
H8 H 0.194(6) -0.105(5) -0.456(3)
H9 H -0.981(6) -1.091(4) -0.938(3)
H10 H -0.773(6) -0.983(4) -0.935(3)
H11 H -0.961(6) -0.780(4) -0.829(3)
H12 H -1.152(6) -0.892(4) -0.817(3)
H13 H 0.125(6) 0.217(4) -0.248(3)
H14 H 0.136(6) 0.223(4) -0.358(3)
H15 H 0.010(7) 0.175(5) -0.495(3)
H16 H -0.840(6) -0.656(4) -0.939(3)
H17 H 0.385(6) -0.025(5) -0.353(3)
H18 H 0.386(6) -0.024(5) -0.242(3)
H19 H -0.875(6) -0.366(4) -0.828(3)
H20 H -0.789(6) -0.387(4) -0.768(3)
H21 H 0.258(7) 0.173(5) -0.460(3)
H22 H 0.335(6) 0.066(5) -0.459(3)
H23 H -0.637(6) -0.840(4) -0.862(3)
H24 H -0.694(6) -0.792(5) -0.927(3)
C27B C -0.1146(7) 0.0567(5) -0.5211(3)
C25B C -0.1229(6) -0.0475(5) -0.5251(3)
C24B C -0.2558(8) -0.0991(7) -0.5537(3)
C21B C -0.2610(6) -0.0980(5) -0.6273(3)
C20B C -0.1868(8) -0.1668(5) -0.6600(3)
C19B C -0.1871(7) -0.1634(5) -0.7251(3)
N1B N -0.2579(5) -0.0945(4) -0.7623(2)
Cd1B Cd 0.26753(4) 0.10065(3) -0.12317(2)
Cd1_2 Cd -1.26753(4) -1.10065(3) -0.87683(2)
O1_2 O -1.0942(4) -1.2440(3) -0.8575(2)
N4_2 N -1.1013(5) -1.2610(4) -0.9179(2)
O2_2 O -1.1776(4) -1.2074(3) -0.9558(2)
O4_2 O -1.4043(4) -0.9467(3) -0.8767(2)
N5_2 N -1.3956(5) -0.9308(4) -0.9363(2)
O5_2 O -1.3493(4) -1.0009(3) -0.9690(2)
N1B_2 N -1.2579(5) -1.0945(4) -0.7623(2)
C19B_2 C -1.1871(7) -1.1634(5) -0.7251(3)
C20B_2 C -1.1868(8) -1.1668(5) -0.6600(3)
C21B_2 C -1.2610(6) -1.0980(5) -0.6273(3)
C22B C -1.3335(7) -1.0265(5) -0.6651(3)
C23B C -1.3299(6) -1.0268(5) -0.7315(3)
H18B H -1.386(6) -0.976(5) -0.758(3)
H17B H -1.385(6) -0.975(5) -0.647(3)
C24B_2 C -1.2558(8) -1.0991(7) -0.5537(3)
C25B_2 C -1.1229(6) -1.0475(5) -0.5251(3)
C26B C -1.0084(8) -1.1030(5) -0.5032(3)
C27_2 C -0.8854(7) -1.0567(5) -0.4789(3)
C25_2 C -0.8771(6) -0.9525(5) -0.4749(3)
C24_2 C -0.7442(8) -0.9009(7) -0.4463(3)
C21_2 C -0.7390(6) -0.9020(5) -0.3727(3)
C20_2 C -0.8132(8) -0.8332(5) -0.3400(3)
C19_2 C -0.8129(7) -0.8366(5) -0.2749(3)
N1_2 N -0.7421(5) -0.9055(4) -0.2377(2)
Cd1B_2 Cd -0.73247(4) -0.89935(3) -0.12317(2)
C23_2 C -0.6701(6) -0.9732(5) -0.2685(3)
C22_2 C -0.6665(7) -0.9735(5) -0.3349(3)
H17_2 H -0.615(6) -1.025(5) -0.353(3)
H18_2 H -0.614(6) -1.024(5) -0.242(3)
H13_2 H -0.875(6) -0.783(4) -0.248(3)
H14_2 H -0.864(6) -0.777(4) -0.358(3)
H21_2 H -0.742(7) -0.827(5) -0.460(3)
H22_2 H -0.665(6) -0.934(5) -0.459(3)
C26_2 C -0.9916(8) -0.8970(5) -0.4968(3)
H8_2 H -0.806(6) -1.105(5) -0.456(3)
H15B H -1.010(7) -1.175(5) -0.505(3)
C27B_2 C -1.1146(7) -0.9433(5) -0.5211(3)
H21B H -1.258(7) -1.173(5) -0.540(3)
H22B H -1.335(6) -1.066(5) -0.541(3)
H14B H -1.136(6) -1.223(4) -0.642(3)
H13B H -1.125(6) -1.217(4) -0.752(3)
N2_2 N -1.4495(5) -1.2071(3) -0.8695(2)
N3_2 N -0.0752(5) 0.0018(3) -0.8784(2)
O6_2 O -0.4289(5) 0.1498(3) -0.9603(2)
O3_2 O -0.0324(5) -0.3305(3) -0.9386(2)
C23B_2 C -0.3299(6) -0.0268(5) -0.7315(3)
C22B_2 C -0.3335(7) -0.0265(5) -0.6651(3)
H17B_2 H -0.385(6) 0.025(5) -0.647(3)
H18B_2 H -0.386(6) 0.024(5) -0.758(3)
H13B_2 H -0.125(6) -0.217(4) -0.752(3)
H14B_2 H -0.136(6) -0.223(4) -0.642(3)
H21B_2 H -0.258(7) -0.173(5) -0.540(3)
H22B_2 H -0.335(6) -0.066(5) -0.541(3)
C26B_2 C -0.0084(8) -0.1030(5) -0.5032(3)
H8B H -0.194(6) 0.105(5) -0.544(3)
H8B_2 H -1.194(6) -0.895(5) -0.544(3)
H15_2 H -0.990(7) -0.825(5) -0.495(3)
H15B_2 H -0.010(7) -0.175(5) -0.505(3)
loop_
_geom_bond_atom_site_label_1
_geom_bond_atom_site_label_2
_geom_bond_site_symmetry_1
_geom_bond_site_symmetry_2
Cd1 O1 1_555 1_555
O1 N4 1_555 1_555
O2 Cd1 1_555 1_555
O3 N4_2 1_555 1_555
O4 Cd1 1_555 1_555
O5 Cd1 1_555 1_555
O6 N5_2 1_555 1_555
N1 C19 1_555 1_555
N2 Cd1 1_555 1_555
N3 C13 1_555 1_555
N4 O2 1_555 1_555
N5 O4 1_555 1_555
C1 N2 1_555 1_555
C2 C1 1_555 1_555
C3 C2 1_555 1_555
C4 C3 1_555 1_555
C5 N2 1_555 1_555
C6 C3 1_555 1_555
C7 C6 1_555 1_555
C8 C7 1_555 1_555
C9 C8 1_555 1_555
C10 C9 1_555 1_555
C11 C10 1_555 1_555
C12 C7 1_555 1_555
C13 C14 1_555 1_555
C14 C15 1_555 1_555
C15 C16 1_555 1_555
C16 C17 1_555 1_555
C17 N3 1_555 1_555
C18 C10 1_555 1_555
C19 C20 1_555 1_555
C20 C21 1_555 1_555
C21 C22 1_555 1_555
C22 C23 1_555 1_555
C23 N1 1_555 1_555
C24 C21 1_555 1_555
C25 C24 1_555 1_555
C26 C25 1_555 1_555
C27 C25 1_555 1_555
H1 C1 1_555 1_555
H2 C2 1_555 1_555
H3 C4 1_555 1_555
H4 C5 1_555 1_555
H5 C12 1_555 1_555
H6 C11 1_555 1_555
H7 C8 1_555 1_555
H8 C27 1_555 1_555
H9 C17 1_555 1_555
H10 C16 1_555 1_555
H11 C14 1_555 1_555
H12 C13 1_555 1_555
H13 C19 1_555 1_555
H14 C20 1_555 1_555
H15 C26 1_555 1_555
H16 C9 1_555 1_555
H17 C22 1_555 1_555
H18 C23 1_555 1_555
H19 C6 1_555 1_555
H20 C6 1_555 1_555
H21 C24 1_555 1_555
H22 C24 1_555 1_555
H23 C18 1_555 1_555
H24 C18 1_555 1_555
C27B C26 1_555 1_555
C25B C27B 1_555 1_555
C24B C25B 1_555 1_555
C21B C24B 1_555 1_555
C20B C21B 1_555 1_555
C19B C20B 1_555 1_555
N1B Cd1 1_555 1_555
Cd1B N1 1_555 1_555
Cd1_2 N3 1_555 1_555
O1_2 Cd1_2 1_555 1_555
N4_2 O1_2 1_555 1_555
O2_2 Cd1_2 1_555 1_555
O4_2 Cd1_2 1_555 1_555
N5_2 O4_2 1_555 1_555
O5_2 Cd1_2 1_555 1_555
N1B_2 Cd1_2 1_555 1_555
C19B_2 N1B_2 1_555 1_555
C20B_2 C19B_2 1_555 1_555
C21B_2 C20B_2 1_555 1_555
C22B C21B_2 1_555 1_555
C23B N1B_2 1_555 1_555
H18B C23B 1_555 1_555
H17B C22B 1_555 1_555
C24B_2 C21B_2 1_555 1_555
C25B_2 C24B_2 1_555 1_555
C26B C25B_2 1_555 1_555
C27_2 C26B 1_555 1_555
C25_2 C27_2 1_555 1_555
C24_2 C25_2 1_555 1_555
C21_2 C24_2 1_555 1_555
C20_2 C21_2 1_555 1_555
C19_2 C20_2 1_555 1_555
N1_2 C19_2 1_555 1_555
Cd1B_2 N1_2 1_555 1_555
C23_2 N1_2 1_555 1_555
C22_2 C21_2 1_555 1_555
H17_2 C22_2 1_555 1_555
H18_2 C23_2 1_555 1_555
H13_2 C19_2 1_555 1_555
H14_2 C20_2 1_555 1_555
H21_2 C24_2 1_555 1_555
H22_2 C24_2 1_555 1_555
C26_2 C25_2 1_555 1_555
H8_2 C27_2 1_555 1_555
H15B C26B 1_555 1_555
C27B_2 C25B_2 1_555 1_555
H21B C24B_2 1_555 1_555
H22B C24B_2 1_555 1_555
H14B C20B_2 1_555 1_555
H13B C19B_2 1_555 1_555
N2_2 Cd1_2 1_555 1_555
N3_2 Cd1 1_555 1_555
O6_2 N5 1_555 1_555
O3_2 N4 1_555 1_555
C23B_2 N1B 1_555 1_555
C22B_2 C21B 1_555 1_555
H17B_2 C22B_2 1_555 1_555
H18B_2 C23B_2 1_555 1_555
H13B_2 C19B 1_555 1_555
H14B_2 C20B 1_555 1_555
H21B_2 C24B 1_555 1_555
H22B_2 C24B 1_555 1_555
C26B_2 C27 1_555 1_555
H8B C27B 1_555 1_555
H8B_2 C27B_2 1_555 1_555
H15_2 C26_2 1_555 1_555
H15B_2 C26B_2 1_555 1_555
O5 N5 1_555 1_555
C4 C5 1_555 1_555
C11 C12 1_555 1_555
C15 C18 1_555 1_555
C25B C26B_2 1_555 1_555
C19B N1B 1_555 1_555
N4_2 O2_2 1_555 1_555
N5_2 O5_2 1_555 1_555
C22B C23B 1_555 1_555
C23_2 C22_2 1_555 1_555
C26_2 C27B_2 1_555 1_555
C23B_2 C22B_2 1_555 1_555

#END
