
#######################################################################
#
#                 Cambridge Crystallographic Data Centre
#                                CCDC 
#
#######################################################################
#
# If this CIF has been generated from an entry in the Cambridge 
# Structural Database, then it will include bibliographic, chemical, 
# crystal, experimental, refinement or atomic coordinate data resulting 
# from the CCDC's data processing and validation procedures.
#
#######################################################################

data_ZANQOW
_symmetry_cell_setting           monoclinic
_symmetry_space_group_name_H-M   'P 21/c'
_symmetry_Int_Tables_number      14
_space_group_name_Hall           '-P 2ybc'
loop_
_symmetry_equiv_pos_site_id
_symmetry_equiv_pos_as_xyz
1 x,y,z
2 -x,1/2+y,1/2-z
3 -x,-y,-z
4 x,1/2-y,1/2+z
_cell_length_a                   10.442(4)
_cell_length_b                   12.666(6)
_cell_length_c                   6.803(4)
_cell_angle_alpha                90
_cell_angle_beta                 96.897(19)
_cell_angle_gamma                90
_cell_volume                     893.243
loop_
_atom_site_label
_atom_site_type_symbol
_atom_site_fract_x
_atom_site_fract_y
_atom_site_fract_z
Pb1 Pb 0.465191(17) 0.638470(13) 0.64777(3)
S1 S 0.30857(11) 0.58790(9) 0.14316(19)
O1 O 0.6125(5) 0.5588(3) 0.4215(7)
O2 O 0.5932(4) 0.7294(3) 0.3948(6)
O3 O 0.2901(4) 0.6274(3) 0.3396(7)
O4 O 0.3610(4) 0.4829(3) 0.1445(6)
O5 O 0.3804(4) 0.6622(3) 0.0349(7)
C1 C 0.6511(6) 0.6459(4) 0.3576(9)
C2 C 0.7677(7) 0.6495(5) 0.2497(10)
H1 H 0.8085 0.7172 0.2692
H2 H 0.7424 0.6383 0.1110
H3 H 0.8271 0.5953 0.2999
C3 C 0.1528(5) 0.5777(4) 0.0066(8)
C4 C 0.1285(6) 0.6372(4) -0.1604(10)
H4 H 0.1892 0.6860 -0.1925
C5 C 0.0110(6) 0.6250(5) -0.2852(10)
H5 H -0.0047 0.6654 -0.3997
C6 C -0.0786(5) 0.5550(4) -0.2391(9)
H6 H -0.1544 0.5466 -0.3245
C7 C 0.0591(5) 0.5054(4) 0.0642(7)
Pb1B Pb 0.534809(17) 0.361530(13) 0.35223(3)
Pb1C Pb 0.465191(17) 0.861530(13) 0.14777(3)
Pb1B_2 Pb -0.465191(17) 0.361530(13) -0.64777(3)
Pb1_2 Pb -0.534809(17) 0.638470(13) -0.35223(3)
Pb1A Pb -0.465191(17) 0.138470(13) -0.14777(3)
Pb1A_2 Pb 0.534809(17) 0.138470(13) 0.85223(3)
S1B S -0.30857(11) 0.41210(9) -0.14316(19)
O1B O 0.3875(5) 0.4412(3) 0.5785(7)
O2B O 0.4068(4) 0.2706(3) 0.6052(6)
O2C O 0.5932(4) 0.7706(3) 0.8948(6)
O2A O 0.4068(4) 0.2294(3) 0.1052(6)
O3B O -0.2901(4) 0.3726(3) -0.3396(7)
O3B_2 O 0.7099(4) 0.3726(3) 0.6604(7)
O4B O -0.3610(4) 0.5171(3) -0.1445(6)
O4B_2 O 0.6390(4) 0.5171(3) 0.8555(6)
O5B O -0.3804(4) 0.3378(3) -0.0349(7)
O5C O 0.3804(4) 0.8378(3) 0.5349(7)
O5A O 0.6196(4) 0.1622(3) 0.4651(7)
C1B C 0.3489(6) 0.3541(4) 0.6424(9)
C2B C 0.2323(7) 0.3505(5) 0.7503(10)
H1B H 0.1915 0.2828 0.7308
H2B H 0.2576 0.3617 0.8890
H3B H 0.1729 0.4047 0.7001
C3B C -0.1528(5) 0.4223(4) -0.0066(8)
C4B C -0.1285(6) 0.3628(4) 0.1604(10)
H4B H -0.1892 0.3140 0.1925
C5B C -0.0110(6) 0.3750(5) 0.2852(10)
H5B H 0.0047 0.3346 0.3997
C6B C 0.0786(5) 0.4450(4) 0.2391(9)
H6B H 0.1544 0.4534 0.3245
C7B C -0.0591(5) 0.4946(4) -0.0642(7)
loop_
_geom_bond_atom_site_label_1
_geom_bond_atom_site_label_2
_geom_bond_site_symmetry_1
_geom_bond_site_symmetry_2
Pb1 O1 1_555 1_555
S1 O3 1_555 1_555
O1 C1 1_555 1_555
O2 Pb1 1_555 1_555
O3 Pb1 1_555 1_555
O4 S1 1_555 1_555
O5 S1 1_555 1_555
C1 O2 1_555 1_555
C2 C1 1_555 1_555
H1 C2 1_555 1_555
H2 C2 1_555 1_555
H3 C2 1_555 1_555
C3 S1 1_555 1_555
C4 C3 1_555 1_555
H4 C4 1_555 1_555
C5 C4 1_555 1_555
H5 C5 1_555 1_555
C6 C5 1_555 1_555
H6 C6 1_555 1_555
C7 C3 1_555 1_555
Pb1B O1 1_555 1_555
Pb1C O2 1_555 1_555
Pb1B_2 O3B 1_555 1_555
Pb1_2 O4B 1_555 1_555
Pb1A O5B 1_555 1_555
Pb1A_2 O2B 1_555 1_555
S1B O3B 1_555 1_555
O1B Pb1 1_555 1_555
O2B Pb1B 1_555 1_555
O2C Pb1 1_555 1_555
O2A Pb1B 1_555 1_555
O3B_2 Pb1B 1_555 1_555
O4B S1B 1_555 1_555
O4B_2 Pb1 1_555 1_555
O5B S1B 1_555 1_555
O5C Pb1 1_555 1_555
O5A Pb1B 1_555 1_555
C1B O1B 1_555 1_555
C2B C1B 1_555 1_555
H1B C2B 1_555 1_555
H2B C2B 1_555 1_555
H3B C2B 1_555 1_555
C3B S1B 1_555 1_555
C4B C3B 1_555 1_555
H4B C4B 1_555 1_555
C5B C4B 1_555 1_555
H5B C5B 1_555 1_555
C6B C7 1_555 1_555
H6B C6B 1_555 1_555
C7B C6 1_555 1_555
O4 Pb1B 1_555 1_555
O5 Pb1C 1_555 1_555
C7 C7B 1_555 1_555
Pb1B O1B 1_555 1_555
O2B C1B 1_555 1_555
C3B C7B 1_555 1_555
C5B C6B 1_555 1_555

#END
