
#######################################################################
#
#                 Cambridge Crystallographic Data Centre
#                                CCDC 
#
#######################################################################
#
# If this CIF has been generated from an entry in the Cambridge 
# Structural Database, then it will include bibliographic, chemical, 
# crystal, experimental, refinement or atomic coordinate data resulting 
# from the CCDC's data processing and validation procedures.
#
#######################################################################

data_ZANSEO
_symmetry_cell_setting           orthorhombic
_symmetry_space_group_name_H-M   'P 21 21 21'
_symmetry_Int_Tables_number      19
_space_group_name_Hall           'P 2ac 2ab'
loop_
_symmetry_equiv_pos_site_id
_symmetry_equiv_pos_as_xyz
1 x,y,z
2 1/2-x,-y,1/2+z
3 1/2+x,1/2-y,-z
4 -x,1/2+y,1/2-z
_cell_length_a                   5.84280(10)
_cell_length_b                   16.3177(2)
_cell_length_c                   32.1286(5)
_cell_angle_alpha                90
_cell_angle_beta                 90
_cell_angle_gamma                90
_cell_volume                     3063.17
loop_
_atom_site_label
_atom_site_type_symbol
_atom_site_fract_x
_atom_site_fract_y
_atom_site_fract_z
K1 K 0.23271(7) -0.07549(2) -0.010496(14)
K2 K -0.44437(8) 0.16361(2) 0.030974(13)
F1 F -0.1583(2) -0.09666(9) 0.02545(4)
F2 F -0.4208(3) 0.00302(7) 0.02809(4)
F3 F -0.4763(2) -0.11459(8) 0.06318(4)
F4 F 0.2008(3) 0.08962(7) -0.00590(4)
F5 F -0.0921(2) 0.17683(7) -0.01961(4)
F6 F 0.2432(2) 0.19073(7) -0.05353(4)
O1 O 0.2775(2) 0.13553(7) 0.17310(4)
O2 O 0.3463(3) 0.14600(10) 0.10405(4)
O3 O -0.3531(2) -0.13910(7) -0.13800(4)
O4 O -0.5101(3) -0.10246(8) -0.07628(4)
O5 O 0.0801(3) -0.23252(10) -0.01815(6)
H1 H 0.097(5) -0.2697(12) -0.0347(7)
H2 H -0.052(2) -0.2317(18) -0.0103(9)
N1 N 0.0878(3) 0.05375(9) 0.12880(5)
N2 N -0.2223(3) -0.02748(9) -0.10475(4)
C1 C 0.0068(3) 0.03130(11) 0.08919(6)
H3 H 0.0749 0.0484 0.0638
C2 C -0.1791(3) -0.01743(10) 0.09157(6)
C3 C -0.2240(3) -0.02728(10) 0.13595(5)
C4 C -0.0545(3) 0.01594(10) 0.15856(5)
C5 C -0.0473(4) 0.01580(11) 0.20163(6)
H4 H 0.0708 0.0433 0.2164
C6 C -0.2203(4) -0.02636(12) 0.22244(6)
H5 H -0.2196 -0.0279 0.2520
C7 C -0.3937(4) -0.06622(12) 0.20090(6)
H6 H -0.5118 -0.0930 0.2160
C8 C -0.3975(3) -0.06758(11) 0.15802(6)
H7 H -0.5162 -0.0955 0.1436
C9 C 0.2502(4) 0.11582(11) 0.13339(6)
C10 C 0.4090(4) 0.21055(11) 0.18483(6)
C11 C 0.6548(4) 0.20440(15) 0.17096(10)
H8 H 0.7180 0.1515 0.1796
H9 H 0.7438 0.2488 0.1836
H10 H 0.6625 0.2090 0.1406
C12 C 0.2916(4) 0.28447(12) 0.16649(8)
H11 H 0.3055 0.2831 0.1361
H12 H 0.3636 0.3344 0.1772
H13 H 0.1294 0.2839 0.1742
C13 C 0.3855(7) 0.20916(19) 0.23156(8)
H14 H 0.2229 0.2093 0.2391
H15 H 0.4599 0.2577 0.2434
H16 H 0.4583 0.1596 0.2426
C14 C -0.1887(3) 0.02142(11) -0.06941(6)
H17 H -0.2847 0.0204 -0.0456
C15 C -0.0034(3) 0.07020(10) -0.07336(5)
C16 C 0.0897(3) 0.05186(9) -0.11437(5)
C17 C -0.0497(3) -0.00726(10) -0.13362(5)
C18 C -0.0142(3) -0.03336(11) -0.17426(6)
H18 H -0.1129 -0.0719 -0.1873
C19 C 0.1730(4) -0.00034(13) -0.19486(6)
H19 H 0.2024 -0.0166 -0.2227
C20 C 0.3184(4) 0.05562(12) -0.17607(7)
H20 H 0.4465 0.0760 -0.1911
C21 C 0.2797(3) 0.08230(11) -0.13564(6)
H21 H 0.3802 0.1204 -0.1228
C22 C -0.3771(3) -0.09235(11) -0.10457(6)
C23 C -0.4680(3) -0.22094(11) -0.14000(6)
C24 C -0.7257(4) -0.21102(13) -0.14087(9)
H22 H -0.7974 -0.2642 -0.1466
H23 H -0.7680 -0.1720 -0.1627
H24 H -0.7786 -0.1905 -0.1139
C25 C -0.3789(4) -0.25395(13) -0.18113(7)
H25 H -0.2115 -0.2570 -0.1802
H26 H -0.4259 -0.2173 -0.2038
H27 H -0.4419 -0.3088 -0.1860
C26 C -0.3843(4) -0.27308(13) -0.10437(7)
H28 H -0.2167 -0.2720 -0.1036
H29 H -0.4369 -0.3296 -0.1082
H30 H -0.4450 -0.2515 -0.0781
B1 B -0.3097(3) -0.05677(11) 0.05280(6)
B2 B 0.0867(4) 0.13229(12) -0.03848(6)
K1_2 K -0.76729(7) -0.07549(2) -0.010496(14)
K2_2 K 0.55563(8) 0.16361(2) 0.030974(13)
K2B K 0.05563(8) 0.33639(2) -0.030974(13)
F2_2 F 0.5792(3) 0.00302(7) 0.02809(4)
F3_2 F 0.5237(2) -0.11459(8) 0.06318(4)
F4_2 F -0.7992(3) 0.08962(7) -0.00590(4)
F5B F -0.5921(2) 0.32317(7) 0.01961(4)
F6B F -0.2568(2) 0.30927(7) 0.05353(4)
O2_2 O -0.6537(3) 0.14600(10) 0.10405(4)
O4_2 O 0.4899(3) -0.10246(8) -0.07628(4)
loop_
_geom_bond_atom_site_label_1
_geom_bond_atom_site_label_2
_geom_bond_site_symmetry_1
_geom_bond_site_symmetry_2
K1 F1 1_555 1_555
K2 F2 1_555 1_555
F1 B1 1_555 1_555
F2 B1 1_555 1_555
F3 B1 1_555 1_555
F4 K1 1_555 1_555
F5 K2 1_555 1_555
F6 B2 1_555 1_555
O1 C9 1_555 1_555
O2 C9 1_555 1_555
O3 C22 1_555 1_555
O4 C22 1_555 1_555
O5 K1 1_555 1_555
H1 O5 1_555 1_555
H2 O5 1_555 1_555
N1 C1 1_555 1_555
N2 C14 1_555 1_555
C1 H3 1_555 1_555
C2 C1 1_555 1_555
C3 C2 1_555 1_555
C4 N1 1_555 1_555
C5 C4 1_555 1_555
H4 C5 1_555 1_555
C6 C5 1_555 1_555
H5 C6 1_555 1_555
C7 C6 1_555 1_555
H6 C7 1_555 1_555
C8 C3 1_555 1_555
H7 C8 1_555 1_555
C9 N1 1_555 1_555
C10 O1 1_555 1_555
C11 C10 1_555 1_555
H8 C11 1_555 1_555
H9 C11 1_555 1_555
H10 C11 1_555 1_555
C12 C10 1_555 1_555
H11 C12 1_555 1_555
H12 C12 1_555 1_555
H13 C12 1_555 1_555
C13 C10 1_555 1_555
H14 C13 1_555 1_555
H15 C13 1_555 1_555
H16 C13 1_555 1_555
C14 H17 1_555 1_555
C15 C14 1_555 1_555
C16 C15 1_555 1_555
C17 N2 1_555 1_555
C18 C17 1_555 1_555
H18 C18 1_555 1_555
C19 C18 1_555 1_555
H19 C19 1_555 1_555
C20 C19 1_555 1_555
H20 C20 1_555 1_555
C21 C16 1_555 1_555
H21 C21 1_555 1_555
C22 N2 1_555 1_555
C23 O3 1_555 1_555
C24 C23 1_555 1_555
H22 C24 1_555 1_555
H23 C24 1_555 1_555
H24 C24 1_555 1_555
C25 C23 1_555 1_555
H25 C25 1_555 1_555
H26 C25 1_555 1_555
H27 C25 1_555 1_555
C26 C23 1_555 1_555
H28 C26 1_555 1_555
H29 C26 1_555 1_555
H30 C26 1_555 1_555
B1 C2 1_555 1_555
B2 F4 1_555 1_555
K1_2 F2 1_555 1_555
K2_2 F4 1_555 1_555
K2B F5 1_555 1_555
F2_2 K1 1_555 1_555
F3_2 K1 1_555 1_555
F4_2 K2 1_555 1_555
F5B K2 1_555 1_555
F6B K2 1_555 1_555
O2_2 K2 1_555 1_555
O4_2 K1 1_555 1_555
F3 K1_2 1_555 1_555
F5 B2 1_555 1_555
F6 K2B 1_555 1_555
O2 K2_2 1_555 1_555
O4 K1_2 1_555 1_555
C3 C4 1_555 1_555
C7 C8 1_555 1_555
C15 B2 1_555 1_555
C16 C17 1_555 1_555
C20 C21 1_555 1_555
K1_2 F4_2 1_555 1_555
K2_2 F2_2 1_555 1_555

#END
