
#######################################################################
#
#                 Cambridge Crystallographic Data Centre
#                                CCDC 
#
#######################################################################
#
# If this CIF has been generated from an entry in the Cambridge 
# Structural Database, then it will include bibliographic, chemical, 
# crystal, experimental, refinement or atomic coordinate data resulting 
# from the CCDC's data processing and validation procedures.
#
#######################################################################

data_ZANTUF
_symmetry_cell_setting           monoclinic
_symmetry_space_group_name_H-M   'P 21/c'
_symmetry_Int_Tables_number      14
_space_group_name_Hall           '-P 2ybc'
loop_
_symmetry_equiv_pos_site_id
_symmetry_equiv_pos_as_xyz
1 x,y,z
2 -x,1/2+y,1/2-z
3 -x,-y,-z
4 x,1/2-y,1/2+z
_cell_length_a                   15.9625(7)
_cell_length_b                   10.9700(5)
_cell_length_c                   21.6801(9)
_cell_angle_alpha                90
_cell_angle_beta                 94.1040(10)
_cell_angle_gamma                90
_cell_volume                     3786.64
loop_
_atom_site_label
_atom_site_type_symbol
_atom_site_fract_x
_atom_site_fract_y
_atom_site_fract_z
Pd1 Pd 0.482310(18) -0.48932(2) 0.188690(12)
Pd2 Pd 0.014350(18) -0.50967(2) -0.317480(12)
Pd3 Pd 0.5000 -0.5000 0.0000
Pd4 Pd 0.0000 -1.0000 0.0000
K1 K 0.42675(5) -0.03544(8) 0.08137(4)
K2 K 0.09465(6) -0.47309(8) -0.07076(4)
S1 S 0.59836(7) -0.37537(10) 0.21959(5)
S2 S 0.39550(7) -0.37040(10) 0.24449(5)
S3 S 0.13902(6) -0.59571(9) -0.28031(5)
S4 S -0.05796(7) -0.67773(10) -0.28909(5)
S5 S 0.41359(6) -0.35511(9) 0.04273(5)
S6 S 0.61598(6) -0.37272(9) 0.01879(5)
S7 S 0.11212(6) -0.87034(9) 0.02391(5)
S8 S 0.09601(6) -0.15439(9) -0.01933(5)
N1 N 0.55052(17) 0.3754(2) 0.14802(12)
N2 N 0.53434(18) 0.1777(3) 0.10408(12)
N3 N 0.36456(18) 0.1932(3) 0.11846(13)
N4 N 0.38671(18) 0.3913(3) 0.16051(12)
N5 N 0.5592(2) -0.1348(3) 0.18054(17)
N6 N 0.3527(2) -0.1501(4) 0.18235(19)
N7 N -0.06619(17) -0.8494(3) -0.15385(12)
N8 N -0.02642(18) -0.6525(3) -0.11603(13)
N9 N 0.13917(19) -0.7189(3) -0.12042(14)
N10 N 0.09353(18) -0.9162(3) -0.15250(13)
N11 N 0.17991(19) -0.4398(3) -0.17926(16)
N12 N 0.0430(3) -0.8800(4) -0.3137(2)
N13 N 0.2462(2) -0.4184(3) 0.00536(17)
N14 N 0.5701(2) -0.1257(3) 0.02917(15)
N15 N 0.0555(2) -0.6274(3) 0.03105(16)
N16 N 0.2599(2) -0.0786(3) 0.02070(17)
C1 C 0.6330(2) 0.3698(4) 0.14158(16)
H1 H 0.6675 0.4368 0.1549
C2 C 0.6693(2) 0.2698(3) 0.11627(16)
H2 H 0.7280 0.2661 0.1118
C3 C 0.6171(2) 0.1759(4) 0.09784(16)
H3 H 0.6407 0.1062 0.0798
C4 C 0.5048(2) 0.2778(3) 0.12903(14)
C5 C 0.4131(2) 0.2861(3) 0.13633(14)
C6 C 0.2825(2) 0.2081(4) 0.12340(17)
H4 H 0.2458 0.1427 0.1117
C7 C 0.2488(2) 0.3139(4) 0.14461(18)
H5 H 0.1899 0.3243 0.1459
C8 C 0.3038(2) 0.4030(4) 0.16362(17)
H6 H 0.2825 0.4764 0.1797
C9 C 0.5728(2) -0.2343(4) 0.19553(18)
C10 C 0.3729(2) -0.2427(4) 0.20423(18)
C11 C -0.1472(2) -0.8196(3) -0.15213(16)
H7 H -0.1894 -0.8774 -0.1647
C12 C -0.1702(2) -0.7058(3) -0.13225(16)
H8 H -0.2277 -0.6843 -0.1307
C13 C -0.1075(2) -0.6244(3) -0.11476(17)
H9 H -0.1225 -0.5454 -0.1013
C14 C -0.0094(2) -0.7628(3) -0.13530(15)
C15 C 0.0802(2) -0.8000(3) -0.13587(15)
C16 C 0.2179(2) -0.7587(4) -0.12183(19)
H10 H 0.2624 -0.7027 -0.1126
C17 C 0.2379(3) -0.8766(4) -0.1360(2)
H11 H 0.2946 -0.9031 -0.1352
C18 C 0.1730(2) -0.9539(4) -0.15129(19)
H12 H 0.1846 -1.0363 -0.1613
C19 C 0.1617(2) -0.5016(3) -0.22118(18)
C20 C 0.0035(3) -0.7959(4) -0.30469(18)
C21 C 0.3143(2) -0.3945(3) 0.02093(17)
C22 C 0.5851(2) -0.2274(4) 0.02536(16)
C23 C 0.0761(2) -0.7271(4) 0.02831(17)
C24 C 0.1932(2) -0.1068(3) 0.00439(17)
Pd1B Pd 0.517690(18) -0.51068(2) -0.188690(12)
Pd1_2 Pd 0.482310(18) 0.51068(2) 0.188690(12)
Pd1B_2 Pd 0.517690(18) -1.51068(2) -0.188690(12)
Pd2B Pd 0.985650(18) -0.49033(2) 0.317480(12)
Pd2A Pd -0.014350(18) -1.00967(2) -0.182520(12)
Pd2C Pd 1.014350(18) 0.00967(2) 0.182520(12)
Pd4_2 Pd 0.0000 0.0000 0.0000
Pd4_3 Pd 1.0000 -1.0000 0.0000
K1B K 0.57325(5) -0.96456(8) -0.08137(4)
K1B_2 K 0.57325(5) 0.03544(8) -0.08137(4)
K1_2 K 0.42675(5) -1.03544(8) 0.08137(4)
K2B K 0.90535(6) -0.52691(8) 0.07076(4)
K2B_2 K -0.09465(6) -0.52691(8) 0.07076(4)
S1B S 0.40164(7) -0.62463(10) -0.21959(5)
S2B S 0.60450(7) -0.62960(10) -0.24449(5)
S3B S 0.86098(6) -0.40429(9) 0.28031(5)
S4B S 1.05796(7) -0.32227(10) 0.28909(5)
S5B S 0.58641(6) -0.64489(9) -0.04273(5)
S6B S 0.38402(6) -0.62728(9) -0.01879(5)
S7B S -0.11212(6) -0.12966(9) -0.02391(5)
S7B_2 S -0.11212(6) -1.12966(9) -0.02391(5)
S8B S 0.90399(6) -0.84561(9) 0.01933(5)
S8_2 S 0.09601(6) -1.15439(9) -0.01933(5)
S8B_2 S -0.09601(6) -0.84561(9) 0.01933(5)
N1B N 0.44948(17) -1.3754(2) -0.14802(12)
N1_2 N 0.55052(17) -0.6246(2) 0.14802(12)
N1B_2 N 0.44948(17) -0.3754(2) -0.14802(12)
N2B N 0.46566(18) -1.1777(3) -0.10408(12)
N3B N 0.63544(18) -1.1932(3) -0.11846(13)
N4B N 0.61329(18) -1.3913(3) -0.16051(12)
N4_2 N 0.38671(18) -0.6087(3) 0.16051(12)
N4B_2 N 0.61329(18) -0.3913(3) -0.16051(12)
N5B N 0.4408(2) -0.8652(3) -0.18054(17)
N6B N 0.6473(2) -0.8499(4) -0.18235(19)
N7B N 1.06619(17) -0.1506(3) 0.15385(12)
N7A N 0.06619(17) -0.3494(3) -0.34615(12)
N7C N 0.93381(17) -0.6506(3) 0.34615(12)
N8B N 1.02642(18) -0.3475(3) 0.11603(13)
N9B N 0.86083(19) -0.2811(3) 0.12042(14)
N10B N 0.90647(18) -0.0838(3) 0.15250(13)
N10A N -0.09353(18) -0.4162(3) -0.34750(13)
N10C N 1.09353(18) -0.5838(3) 0.34750(13)
N11B N 0.82009(19) -0.5602(3) 0.17926(16)
N12B N 0.9570(3) -0.1200(4) 0.3137(2)
N13B N 0.7538(2) -0.5816(3) -0.00536(17)
N14B N 0.4299(2) -0.8743(3) -0.02917(15)
N14B_2 N 0.4299(2) 0.1257(3) -0.02917(15)
N14_2 N 0.5701(2) -1.1257(3) 0.02917(15)
N15B N -0.0555(2) -0.3726(3) -0.03105(16)
N15B_2 N 0.9445(2) -0.3726(3) -0.03105(16)
N15_2 N 1.0555(2) -0.6274(3) 0.03105(16)
N16B N 0.7401(2) -0.9214(3) -0.02070(17)
C1B C 0.3670(2) -1.3698(4) -0.14158(16)
H1B H 0.3325 -1.4368 -0.1549
C2B C 0.3307(2) -1.2698(3) -0.11627(16)
H2B H 0.2720 -1.2661 -0.1118
C3B C 0.3829(2) -1.1759(4) -0.09784(16)
H3B H 0.3593 -1.1062 -0.0798
C4B C 0.4952(2) -1.2778(3) -0.12903(14)
C5B C 0.5869(2) -1.2861(3) -0.13633(14)
C6B C 0.7175(2) -1.2081(4) -0.12340(17)
H4B H 0.7542 -1.1427 -0.1117
C7B C 0.7512(2) -1.3139(4) -0.14461(18)
H5B H 0.8101 -1.3243 -0.1459
C8B C 0.6962(2) -1.4030(4) -0.16362(17)
H6B H 0.7175 -1.4764 -0.1797
C9B C 0.4272(2) -0.7657(4) -0.19553(18)
C10B C 0.6271(2) -0.7573(4) -0.20423(18)
C11B C 1.1472(2) -0.1804(3) 0.15213(16)
H7B H 1.1894 -0.1226 0.1647
C12B C 1.1702(2) -0.2942(3) 0.13225(16)
H8B H 1.2277 -0.3157 0.1307
C13B C 1.1075(2) -0.3756(3) 0.11476(17)
H9B H 1.1225 -0.4546 0.1013
C14B C 1.0094(2) -0.2372(3) 0.13530(15)
C15B C 0.9198(2) -0.2000(3) 0.13587(15)
C16B C 0.7821(2) -0.2413(4) 0.12183(19)
H10B H 0.7376 -0.2973 0.1126
C17B C 0.7621(3) -0.1234(4) 0.1360(2)
H11B H 0.7054 -0.0969 0.1352
C18B C 0.8270(2) -0.0461(4) 0.15129(19)
H12B H 0.8154 0.0363 0.1613
C19B C 0.8383(2) -0.4984(3) 0.22118(18)
C20B C 0.9965(3) -0.2041(4) 0.30469(18)
C21B C 0.6857(2) -0.6055(3) -0.02093(17)
C22B C 0.4149(2) -0.7726(4) -0.02536(16)
C23B C -0.0761(2) -0.2729(4) -0.02831(17)
C24B C 0.8068(2) -0.8932(3) -0.00439(17)
loop_
_geom_bond_atom_site_label_1
_geom_bond_atom_site_label_2
_geom_bond_site_symmetry_1
_geom_bond_site_symmetry_2
Pd1 S1 1_555 1_555
Pd2 S3 1_555 1_555
Pd3 S5 1_555 1_555
Pd4 S7 1_555 1_555
K1 N2 1_555 1_555
K2 N8 1_555 1_555
S1 C9 1_555 1_555
S2 Pd1 1_555 1_555
S3 C19 1_555 1_555
S4 Pd2 1_555 1_555
S5 C21 1_555 1_555
S6 Pd3 1_555 1_555
S7 C23 1_555 1_555
S8 C24 1_555 1_555
N1 C1 1_555 1_555
N2 C3 1_555 1_555
N3 K1 1_555 1_555
N4 C5 1_555 1_555
N5 C9 1_555 1_555
N6 K1 1_555 1_555
N7 C11 1_555 1_555
N8 C13 1_555 1_555
N9 K2 1_555 1_555
N10 C15 1_555 1_555
N11 K2 1_555 1_555
N12 C20 1_555 1_555
N13 K2 1_555 1_555
N14 K1 1_555 1_555
N15 K2 1_555 1_555
N16 K1 1_555 1_555
C1 H1 1_555 1_555
C2 C1 1_555 1_555
H2 C2 1_555 1_555
C3 C2 1_555 1_555
H3 C3 1_555 1_555
C4 N1 1_555 1_555
C5 N3 1_555 1_555
C6 N3 1_555 1_555
H4 C6 1_555 1_555
C7 C6 1_555 1_555
H5 C7 1_555 1_555
C8 N4 1_555 1_555
H6 C8 1_555 1_555
C10 S2 1_555 1_555
C11 H7 1_555 1_555
C12 C11 1_555 1_555
H8 C12 1_555 1_555
C13 C12 1_555 1_555
H9 C13 1_555 1_555
C14 N7 1_555 1_555
C15 N9 1_555 1_555
C16 N9 1_555 1_555
H10 C16 1_555 1_555
C17 C16 1_555 1_555
H11 C17 1_555 1_555
C18 N10 1_555 1_555
H12 C18 1_555 1_555
C19 N11 1_555 1_555
C20 S4 1_555 1_555
C21 N13 1_555 1_555
C22 S6 1_555 1_555
C23 N15 1_555 1_555
C24 N16 1_555 1_555
Pd1B S1B 1_555 1_555
Pd1_2 N1 1_555 1_555
Pd1B_2 N1B 1_555 1_555
Pd2B S3B 1_555 1_555
Pd2A N7 1_555 1_555
Pd2C N7B 1_555 1_555
Pd4_2 S8 1_555 1_555
Pd4_3 S8B 1_555 1_555
K1B N2B 1_555 1_555
K1B_2 N14 1_555 1_555
K1_2 N14B 1_555 1_555
K2B N8B 1_555 1_555
K2B_2 N15 1_555 1_555
S1B C9B 1_555 1_555
S2B Pd1B 1_555 1_555
S3B C19B 1_555 1_555
S4B Pd2B 1_555 1_555
S5B Pd3 1_555 1_555
S6B Pd3 1_555 1_555
S7B Pd4_2 1_555 1_555
S7B_2 Pd4 1_555 1_555
S8B C24B 1_555 1_555
S8_2 Pd4 1_555 1_555
S8B_2 Pd4 1_555 1_555
N1B C1B 1_555 1_555
N1_2 Pd1 1_555 1_555
N1B_2 Pd1B 1_555 1_555
N2B C3B 1_555 1_555
N3B K1B 1_555 1_555
N4B Pd1B_2 1_555 1_555
N4_2 Pd1 1_555 1_555
N4B_2 Pd1B 1_555 1_555
N5B C9B 1_555 1_555
N6B K1B 1_555 1_555
N7B C11B 1_555 1_555
N7A Pd2 1_555 1_555
N7C Pd2B 1_555 1_555
N8B C13B 1_555 1_555
N9B K2B 1_555 1_555
N10B Pd2C 1_555 1_555
N10A Pd2 1_555 1_555
N10C Pd2B 1_555 1_555
N11B K2B 1_555 1_555
N12B C20B 1_555 1_555
N13B K2B 1_555 1_555
N14B K1B 1_555 1_555
N14B_2 K1 1_555 1_555
N14_2 K1B 1_555 1_555
N15B K2 1_555 1_555
N15B_2 K2B 1_555 1_555
N15_2 K2B 1_555 1_555
N16B K1B 1_555 1_555
C1B H1B 1_555 1_555
C2B C1B 1_555 1_555
H2B C2B 1_555 1_555
C3B C2B 1_555 1_555
H3B C3B 1_555 1_555
C4B N1B 1_555 1_555
C5B N3B 1_555 1_555
C6B N3B 1_555 1_555
H4B C6B 1_555 1_555
C7B C6B 1_555 1_555
H5B C7B 1_555 1_555
C8B N4B 1_555 1_555
H6B C8B 1_555 1_555
C10B S2B 1_555 1_555
C11B H7B 1_555 1_555
C12B C11B 1_555 1_555
H8B C12B 1_555 1_555
C13B C12B 1_555 1_555
H9B C13B 1_555 1_555
C14B N7B 1_555 1_555
C15B N9B 1_555 1_555
C16B N9B 1_555 1_555
H10B C16B 1_555 1_555
C17B C16B 1_555 1_555
H11B C17B 1_555 1_555
C18B N10B 1_555 1_555
H12B C18B 1_555 1_555
C19B N11B 1_555 1_555
C20B S4B 1_555 1_555
C21B S5B 1_555 1_555
C22B S6B 1_555 1_555
C23B S7B 1_555 1_555
C24B N16B 1_555 1_555
N2 C4 1_555 1_555
N4 Pd1_2 1_555 1_555
N6 C10 1_555 1_555
N8 C14 1_555 1_555
N10 Pd2A 1_555 1_555
N14 C22 1_555 1_555
C4 C5 1_555 1_555
C7 C8 1_555 1_555
C14 C15 1_555 1_555
C17 C18 1_555 1_555
K1B_2 N14B_2 1_555 1_555
K1_2 N14_2 1_555 1_555
K2B_2 N15B 1_555 1_555
N2B C4B 1_555 1_555
N4B C5B 1_555 1_555
N6B C10B 1_555 1_555
N8B C14B 1_555 1_555
N10B C15B 1_555 1_555
N13B C21B 1_555 1_555
N14B C22B 1_555 1_555
N15B C23B 1_555 1_555
C4B C5B 1_555 1_555
C7B C8B 1_555 1_555
C14B C15B 1_555 1_555
C17B C18B 1_555 1_555

#END
