
#######################################################################
#
#                 Cambridge Crystallographic Data Centre
#                                CCDC 
#
#######################################################################
#
# If this CIF has been generated from an entry in the Cambridge 
# Structural Database, then it will include bibliographic, chemical, 
# crystal, experimental, refinement or atomic coordinate data resulting 
# from the CCDC's data processing and validation procedures.
#
#######################################################################

data_ZANTAL
_symmetry_cell_setting           monoclinic
_symmetry_space_group_name_H-M   'P 21/c'
_symmetry_Int_Tables_number      14
_space_group_name_Hall           '-P 2ybc'
loop_
_symmetry_equiv_pos_site_id
_symmetry_equiv_pos_as_xyz
1 x,y,z
2 -x,1/2+y,1/2-z
3 -x,-y,-z
4 x,1/2-y,1/2+z
_cell_length_a                   12.7402(19)
_cell_length_b                   6.9555(11)
_cell_length_c                   10.7549(16)
_cell_angle_alpha                90
_cell_angle_beta                 106.8090(10)
_cell_angle_gamma                90
_cell_volume                     912.32
loop_
_atom_site_label
_atom_site_type_symbol
_atom_site_fract_x
_atom_site_fract_y
_atom_site_fract_z
C1 C 0.30765(19) 0.2887(4) 0.3041(2)
H1 H 0.3447 0.2929 0.2412
C2 C 0.1466(2) 0.4991(3) 0.1939(2)
H2 H 0.0708 0.4582 0.1737
H3 H 0.1698 0.4853 0.1160
C3 C 0.1555(2) 0.7069(3) 0.2350(2)
H4 H 0.1298 0.7213 0.3110
H5 H 0.2318 0.7463 0.2584
C4 C 0.08935(19) 0.8341(3) 0.1283(2)
C5 C 0.42494(19) -0.3428(4) 0.6880(2)
Cd1 Cd 0.5000 0.0000 0.5000
N1 N 0.33986(16) 0.1944(3) 0.41393(17)
N2 N 0.26241(18) 0.2267(3) 0.4749(2)
N3 N 0.18639(17) 0.3363(3) 0.4049(2)
N4 N 0.21474(15) 0.3766(3) 0.29673(17)
N5 N 0.46640(18) -0.3889(3) 0.79258(19)
O1 O 0.04537(15) 0.7745(3) 0.01892(15)
O2 O 0.08335(18) 1.0111(3) 0.16420(19)
S1 S 0.36445(7) -0.27644(12) 0.53866(6)
H6 H 0.042(3) 1.083(6) 0.093(4)
C1B C 0.69235(19) -0.2887(4) 0.6959(2)
H1B H 0.6553 -0.2929 0.7588
C2B C 0.8534(2) -0.4991(3) 0.8061(2)
H2B H 0.9292 -0.4582 0.8263
H3B H 0.8302 -0.4853 0.8840
C3B C 0.8445(2) -0.7069(3) 0.7650(2)
H4B H 0.8702 -0.7213 0.6890
H5B H 0.7682 -0.7463 0.7416
C4B C 0.91065(19) -0.8341(3) 0.8717(2)
C5B C 0.57506(19) 0.3428(4) 0.3120(2)
Cd1A Cd 0.5000 -0.5000 1.0000
Cd1A_2 Cd 0.5000 0.5000 0.0000
N1B N 0.66014(16) -0.1944(3) 0.58607(17)
N2B N 0.73759(18) -0.2267(3) 0.5251(2)
N3B N 0.81361(17) -0.3363(3) 0.5951(2)
N4B N 0.78526(15) -0.3766(3) 0.70327(17)
N5C N 0.46640(18) -0.1111(3) 0.29258(19)
N5A N 0.53360(18) 0.1111(3) 0.70742(19)
N5B N 0.53360(18) 0.3889(3) 0.20742(19)
O1B O 0.95463(15) -0.7745(3) 0.98108(15)
O2B O 0.91665(18) -1.0111(3) 0.83580(19)
S1B S 0.63555(7) 0.27644(12) 0.46134(6)
H6B H 0.958(3) -1.083(6) 0.907(4)
loop_
_geom_bond_atom_site_label_1
_geom_bond_atom_site_label_2
_geom_bond_site_symmetry_1
_geom_bond_site_symmetry_2
C1 H1 1_555 1_555
C2 H2 1_555 1_555
H3 C2 1_555 1_555
C3 C2 1_555 1_555
H4 C3 1_555 1_555
H5 C3 1_555 1_555
C4 C3 1_555 1_555
C5 N5 1_555 1_555
Cd1 N1 1_555 1_555
N1 C1 1_555 1_555
N2 N1 1_555 1_555
N3 N2 1_555 1_555
N4 C1 1_555 1_555
N5 Cd1A 1_555 1_555
O1 C4 1_555 1_555
O2 C4 1_555 1_555
S1 C5 1_555 1_555
H6 O2 1_555 1_555
C1B H1B 1_555 1_555
C2B H2B 1_555 1_555
H3B C2B 1_555 1_555
C3B C2B 1_555 1_555
H4B C3B 1_555 1_555
H5B C3B 1_555 1_555
C4B C3B 1_555 1_555
C5B N5B 1_555 1_555
Cd1A_2 N5B 1_555 1_555
N1B Cd1 1_555 1_555
N2B N1B 1_555 1_555
N3B N2B 1_555 1_555
N4B C1B 1_555 1_555
N5C Cd1 1_555 1_555
N5A Cd1 1_555 1_555
O1B C4B 1_555 1_555
O2B C4B 1_555 1_555
S1B Cd1 1_555 1_555
H6B O2B 1_555 1_555
C2 N4 1_555 1_555
Cd1 S1 1_555 1_555
N3 N4 1_555 1_555
C1B N1B 1_555 1_555
C2B N4B 1_555 1_555
C5B S1B 1_555 1_555
N3B N4B 1_555 1_555

#END
