
#######################################################################
#
#                 Cambridge Crystallographic Data Centre
#                                CCDC 
#
#######################################################################
#
# If this CIF has been generated from an entry in the Cambridge 
# Structural Database, then it will include bibliographic, chemical, 
# crystal, experimental, refinement or atomic coordinate data resulting 
# from the CCDC's data processing and validation procedures.
#
#######################################################################

data_ZANVAN
_symmetry_cell_setting           orthorhombic
_symmetry_space_group_name_H-M   'P b c n'
_symmetry_Int_Tables_number      60
_space_group_name_Hall           '-P 2n 2ab'
loop_
_symmetry_equiv_pos_site_id
_symmetry_equiv_pos_as_xyz
1 x,y,z
2 1/2-x,1/2-y,1/2+z
3 -x,y,1/2-z
4 1/2+x,1/2-y,-z
5 -x,-y,-z
6 1/2+x,1/2+y,1/2-z
7 x,-y,1/2+z
8 1/2-x,1/2+y,z
_cell_length_a                   11.327(2)
_cell_length_b                   10.207(2)
_cell_length_c                   14.452(3)
_cell_angle_alpha                90
_cell_angle_beta                 90
_cell_angle_gamma                90
_cell_volume                     1670.86
loop_
_atom_site_label
_atom_site_type_symbol
_atom_site_fract_x
_atom_site_fract_y
_atom_site_fract_z
C1 C 0.83519(13) 0.15817(15) 0.39823(10)
H1 H 0.8723 0.1028 0.4402
C2 C 0.7938(2) 0.2662(3) 0.27631(15)
H2 H 0.7976 0.3004 0.2168
C3 C 0.7085(2) 0.2926(3) 0.33876(15)
H3 H 0.6436 0.3472 0.3304
C4 C 0.66639(15) 0.21680(18) 0.50158(12)
H4 H 0.6237 0.2983 0.5099
H5 H 0.7195 0.2065 0.5537
C5 C 0.59983(16) -0.0048(2) 0.55434(14)
H6 H 0.6667 -0.0088 0.5916
C6 C 0.57941(13) 0.10417(16) 0.50083(11)
C7 C 0.47871(17) 0.1088(2) 0.44701(16)
H7 H 0.4635 0.1826 0.4112
Cl1 Cl 1.08205(3) -0.03773(4) 0.36609(3)
N1 N 0.87372(11) 0.18141(14) 0.31401(9)
N2 N 0.73601(11) 0.22419(13) 0.41575(9)
Zn1 Zn 1.0000 0.07951(2) 0.2500
C1D C 0.16481(13) -0.15817(15) 0.60177(10)
H1D H 0.1277 -0.1028 0.5598
C2D C 0.2062(2) -0.2662(3) 0.72369(15)
H2D H 0.2024 -0.3004 0.7832
C3D C 0.2915(2) -0.2926(3) 0.66124(15)
H3D H 0.3564 -0.3472 0.6696
C4D C 0.33361(15) -0.21680(18) 0.49842(12)
H4D H 0.3763 -0.2983 0.4901
H5D H 0.2805 -0.2065 0.4463
C5D C 0.40017(16) 0.0048(2) 0.44566(14)
H6D H 0.3333 0.0088 0.4084
C6D C 0.42059(13) -0.10417(16) 0.49917(11)
C7D C 0.52129(17) -0.1088(2) 0.55299(16)
H7D H 0.5365 -0.1826 0.5888
Cl1B Cl 0.91795(3) -0.03773(4) 0.13391(3)
N1D N 0.12628(11) -0.18141(14) 0.68599(9)
N1B N 1.12628(11) 0.18141(14) 0.18599(9)
N2D N 0.26399(11) -0.22419(13) 0.58425(9)
Zn1D Zn 0.0000 -0.07951(2) 0.7500
loop_
_geom_bond_atom_site_label_1
_geom_bond_atom_site_label_2
_geom_bond_site_symmetry_1
_geom_bond_site_symmetry_2
C1 H1 1_555 1_555
C2 H2 1_555 1_555
C3 C2 1_555 1_555
H3 C3 1_555 1_555
C4 H4 1_555 1_555
H5 C4 1_555 1_555
C5 H6 1_555 1_555
C6 C4 1_555 1_555
C7 C6 1_555 1_555
H7 C7 1_555 1_555
Cl1 Zn1 1_555 1_555
N1 C1 1_555 1_555
N2 C1 1_555 1_555
Zn1 N1 1_555 1_555
C1D H1D 1_555 1_555
C2D H2D 1_555 1_555
C3D C2D 1_555 1_555
H3D C3D 1_555 1_555
C4D H4D 1_555 1_555
H5D C4D 1_555 1_555
C5D C7 1_555 1_555
H6D C5D 1_555 1_555
C6D C4D 1_555 1_555
C7D C5 1_555 1_555
H7D C7D 1_555 1_555
Cl1B Zn1 1_555 1_555
N1D C1D 1_555 1_555
N1B Zn1 1_555 1_555
N2D C1D 1_555 1_555
Zn1D N1D 1_555 1_555
C2 N1 1_555 1_555
C3 N2 1_555 1_555
C4 N2 1_555 1_555
C5 C6 1_555 1_555
C2D N1D 1_555 1_555
C3D N2D 1_555 1_555
C4D N2D 1_555 1_555
C5D C6D 1_555 1_555
C6D C7D 1_555 1_555

#END
