
#######################################################################
#
#                 Cambridge Crystallographic Data Centre
#                                CCDC 
#
#######################################################################
#
# If this CIF has been generated from an entry in the Cambridge 
# Structural Database, then it will include bibliographic, chemical, 
# crystal, experimental, refinement or atomic coordinate data resulting 
# from the CCDC's data processing and validation procedures.
#
#######################################################################

data_ZANVUH
_symmetry_cell_setting           monoclinic
_symmetry_space_group_name_H-M   'P 21/n'
_symmetry_Int_Tables_number      14
_space_group_name_Hall           '-P 2yn'
loop_
_symmetry_equiv_pos_site_id
_symmetry_equiv_pos_as_xyz
1 x,y,z
2 1/2-x,1/2+y,1/2-z
3 -x,-y,-z
4 1/2+x,1/2-y,1/2+z
_cell_length_a                   10.0074(10)
_cell_length_b                   17.7556(17)
_cell_length_c                   14.5125(14)
_cell_angle_alpha                90
_cell_angle_beta                 102.9240(10)
_cell_angle_gamma                90
_cell_volume                     2513.36
loop_
_atom_site_label
_atom_site_type_symbol
_atom_site_fract_x
_atom_site_fract_y
_atom_site_fract_z
Cu1 Cu 0.35793(5) 0.01457(3) 0.84772(3)
Cu2 Cu 1.10313(5) 0.03539(3) 0.62780(4)
Cu3 Cu 0.46792(5) 0.19932(3) 0.63059(3)
Cu4 Cu 0.87398(4) 0.19909(2) 0.81033(3)
Br1 Br 0.66910(4) 0.26922(3) 0.72846(3)
N1 N 0.2531(3) 0.01213(16) 0.95197(18)
N2 N 0.4332(3) -0.08313(16) 0.91135(18)
N3 N 1.1656(3) -0.07460(17) 0.6509(2)
N4 N 1.2024(3) 0.02421(17) 0.5226(2)
N5 N 0.4205(3) 0.12318(17) 0.70702(19)
N6 N 0.4104(3) 0.26904(16) 0.4389(2)
N7 N 0.9502(3) 0.13623(16) 0.73146(19)
C1 C 0.1708(4) 0.0657(2) 0.9725(3)
H1 H 0.1423 0.1037 0.9284
C2 C 0.1261(4) 0.0676(2) 1.0554(3)
H2 H 0.0695 0.1061 1.0674
C3 C 0.1669(4) 0.0114(2) 1.1194(3)
H3 H 0.1379 0.0109 1.1760
C4 C 0.2521(3) -0.04517(19) 1.0997(2)
H4 H 0.2813 -0.0836 1.1431
C5 C 0.2931(3) -0.04371(18) 1.0149(2)
C6 C 0.3839(3) -0.10117(18) 0.9871(2)
C7 C 0.4153(3) -0.1688(2) 1.0339(2)
H5 H 0.3800 -0.1803 1.0863
C8 C 0.4990(4) -0.2189(2) 1.0022(3)
H6 H 0.5201 -0.2650 1.0324
C9 C 0.5519(4) -0.2003(3) 0.9248(3)
H7 H 0.6096 -0.2331 0.9022
C10 C 0.5169(4) -0.1325(3) 0.8830(3)
H8 H 0.5533 -0.1196 0.8315
C11 C 1.1467(4) -0.1211(3) 0.7194(3)
H9 H 1.0891 -0.1057 0.7580
C12 C 1.2070(5) -0.1896(3) 0.7354(3)
H10 H 1.1926 -0.2199 0.7845
C13 C 1.2888(5) -0.2128(3) 0.6784(4)
H11 H 1.3310 -0.2597 0.6873
C14 C 1.3087(4) -0.1667(2) 0.6077(3)
H12 H 1.3652 -0.1821 0.5684
C15 C 1.2458(3) -0.0972(2) 0.5940(3)
C16 C 1.2631(3) -0.0431(2) 0.5204(2)
C17 C 1.3361(4) -0.0580(2) 0.4522(3)
H13 H 1.3769 -0.1049 0.4504
C18 C 1.3487(4) -0.0046(3) 0.3876(3)
H14 H 1.3981 -0.0147 0.3418
C19 C 1.2890(4) 0.0634(3) 0.3904(3)
H15 H 1.2972 0.1009 0.3473
C20 C 1.2164(4) 0.0755(2) 0.4580(3)
H16 H 1.1742 0.1221 0.4593
C21 C 0.3923(3) 0.0802(2) 0.7580(2)
C22 C 0.4283(3) 0.24393(18) 0.5130(2)
C23 C 1.0047(4) 0.09831(19) 0.6881(3)
Cu4C Cu 0.37398(4) 0.30091(2) 0.31033(3)
N6C N 0.9104(3) 0.23096(16) 0.9389(2)
loop_
_geom_bond_atom_site_label_1
_geom_bond_atom_site_label_2
_geom_bond_site_symmetry_1
_geom_bond_site_symmetry_2
Cu1 N1 1_555 1_555
Cu2 N3 1_555 1_555
Cu3 Br1 1_555 1_555
Cu4 Br1 1_555 1_555
N1 C1 1_555 1_555
N2 Cu1 1_555 1_555
N3 C11 1_555 1_555
N4 Cu2 1_555 1_555
N5 Cu3 1_555 1_555
N6 C22 1_555 1_555
N7 Cu4 1_555 1_555
C1 H1 1_555 1_555
C2 C1 1_555 1_555
H2 C2 1_555 1_555
C3 C2 1_555 1_555
H3 C3 1_555 1_555
C4 C3 1_555 1_555
H4 C4 1_555 1_555
C5 N1 1_555 1_555
C6 N2 1_555 1_555
C7 C6 1_555 1_555
H5 C7 1_555 1_555
C8 C7 1_555 1_555
H6 C8 1_555 1_555
C9 C8 1_555 1_555
H7 C9 1_555 1_555
C10 N2 1_555 1_555
H8 C10 1_555 1_555
C11 H9 1_555 1_555
C12 C11 1_555 1_555
H10 C12 1_555 1_555
C13 C12 1_555 1_555
H11 C13 1_555 1_555
C14 C13 1_555 1_555
H12 C14 1_555 1_555
C15 N3 1_555 1_555
C16 N4 1_555 1_555
C17 C16 1_555 1_555
H13 C17 1_555 1_555
C18 C17 1_555 1_555
H14 C18 1_555 1_555
C19 C18 1_555 1_555
H15 C19 1_555 1_555
C20 N4 1_555 1_555
H16 C20 1_555 1_555
C21 Cu1 1_555 1_555
C22 Cu3 1_555 1_555
C23 Cu2 1_555 1_555
Cu4C N6 1_555 1_555
N6C Cu4 1_555 1_555
N5 C21 1_555 1_555
N7 C23 1_555 1_555
C4 C5 1_555 1_555
C5 C6 1_555 1_555
C9 C10 1_555 1_555
C14 C15 1_555 1_555
C15 C16 1_555 1_555
C19 C20 1_555 1_555

#END
