
#######################################################################
#
#                 Cambridge Crystallographic Data Centre
#                                CCDC 
#
#######################################################################
#
# If this CIF has been generated from an entry in the Cambridge 
# Structural Database, then it will include bibliographic, chemical, 
# crystal, experimental, refinement or atomic coordinate data resulting 
# from the CCDC's data processing and validation procedures.
#
#######################################################################

data_ZAQSIT
_symmetry_cell_setting           monoclinic
_symmetry_space_group_name_H-M   'P 21/c'
_symmetry_Int_Tables_number      14
_space_group_name_Hall           '-P 2ybc'
loop_
_symmetry_equiv_pos_site_id
_symmetry_equiv_pos_as_xyz
1 x,y,z
2 -x,1/2+y,1/2-z
3 -x,-y,-z
4 x,1/2-y,1/2+z
_cell_length_a                   8.3693(3)
_cell_length_b                   9.3542(3)
_cell_length_c                   8.5677(2)
_cell_angle_alpha                90
_cell_angle_beta                 108.895(3)
_cell_angle_gamma                90
_cell_volume                     634.605
loop_
_atom_site_label
_atom_site_type_symbol
_atom_site_fract_x
_atom_site_fract_y
_atom_site_fract_z
Zn1 Zn -0.5771(6) 0.3879(4) -0.6267(5)
Mn1 Mn -0.5000 0.0000 -0.5000
P1 P 0.353(2) -0.208(1) -0.251(1)
O1 O 0.412(2) -0.109(2) -0.096(2)
O2 O 0.484(1) -0.348(1) -0.203(1)
O3 O 0.366(1) -0.134(1) -0.398(1)
O4 O -0.815(2) 0.332(1) -0.669(2)
O5 O -0.281(2) -0.114(1) -0.356(1)
C1 C 0.143(4) -0.265(2) -0.271(3)
C2 C 0.010(3) -0.144(2) -0.308(3)
C3 C -0.155(4) -0.199(3) -0.326(3)
O1C O -0.588(2) -0.391(2) -0.596(2)
O2C O -0.516(1) -0.152(1) -0.703(1)
O1C_2 O -0.588(2) 0.609(2) -0.596(2)
O3_2 O -0.634(1) -0.134(1) -0.398(1)
O3B O -0.366(1) 0.134(1) -0.602(1)
O5B O -0.719(2) 0.114(1) -0.644(1)
Zn1C Zn 0.4229(6) 0.1121(4) -0.1267(5)
Zn1B Zn -0.4229(6) -0.3879(4) -0.3733(5)
Zn1A Zn -1.4229(6) -0.1121(4) -0.8733(5)
O1A O -0.412(2) -0.609(2) -0.404(2)
C3B C -0.845(4) 0.199(3) -0.674(3)
O2B O -0.484(1) 0.348(1) -0.797(1)
O1A_2 O -0.412(2) 0.391(2) -0.404(2)
O2_2 O -0.516(1) -0.348(1) -0.203(1)
O4B O -0.185(2) -0.332(1) -0.331(2)
O1B O -1.412(2) 0.109(2) -0.904(2)
C2B C -1.010(3) 0.144(2) -0.692(3)
Zn1A_2 Zn 0.5771(6) -0.1121(4) 0.1267(5)
Mn1_2 Mn 0.5000 0.0000 -0.5000
Zn1C_2 Zn -1.5771(6) 0.1121(4) -1.1267(5)
P1B P -1.353(2) 0.208(1) -0.749(1)
Mn1_3 Mn -1.5000 0.0000 -0.5000
C1B C -1.143(4) 0.265(2) -0.729(3)
O2A O -0.484(1) 0.152(1) -0.297(1)
O2B_2 O -1.484(1) 0.348(1) -0.797(1)
O3B_2 O -1.366(1) 0.134(1) -0.602(1)
Zn1B_2 Zn 0.5771(6) -0.3879(4) -0.3733(5)
Mn1A Mn 0.5000 -0.5000 0.0000
Zn1_2 Zn -1.5771(6) 0.3879(4) -0.6267(5)
Mn1A_2 Mn -1.5000 0.5000 -1.0000
loop_
_geom_bond_atom_site_label_1
_geom_bond_atom_site_label_2
_geom_bond_site_symmetry_1
_geom_bond_site_symmetry_2
Zn1 O4 1_555 1_555
Mn1 O5 1_555 1_555
P1 O1 1_555 1_555
O1 Zn1C 1_555 1_555
O2 P1 1_555 1_555
O3 P1 1_555 1_555
O4 C3B 1_555 1_555
O5 C3 1_555 1_555
C1 P1 1_555 1_555
C2 C1 1_555 1_555
C3 C2 1_555 1_555
O1C Zn1B 1_555 1_555
O2C Mn1 1_555 1_555
O1C_2 Zn1 1_555 1_555
O3_2 Mn1 1_555 1_555
O3B Mn1 1_555 1_555
O5B Mn1 1_555 1_555
Zn1B O1A 1_555 1_555
Zn1A O1B 1_555 1_555
C3B O5B 1_555 1_555
O2B Zn1 1_555 1_555
O1A_2 Zn1 1_555 1_555
O2_2 Zn1B 1_555 1_555
O4B C3 1_555 1_555
O1B Zn1C_2 1_555 1_555
C2B C3B 1_555 1_555
Zn1A_2 O1 1_555 1_555
Mn1_2 O3 1_555 1_555
P1B O1B 1_555 1_555
Mn1_3 O3B_2 1_555 1_555
C1B C2B 1_555 1_555
O2A Mn1 1_555 1_555
O2B_2 P1B 1_555 1_555
O3B_2 P1B 1_555 1_555
Zn1B_2 O2 1_555 1_555
Mn1A O2 1_555 1_555
Zn1_2 O2B_2 1_555 1_555
Mn1A_2 O2B_2 1_555 1_555
Zn1B O4B 1_555 1_555
P1B C1B 1_555 1_555

#END
