
#######################################################################
#
#                 Cambridge Crystallographic Data Centre
#                                CCDC 
#
#######################################################################
#
# If this CIF has been generated from an entry in the Cambridge 
# Structural Database, then it will include bibliographic, chemical, 
# crystal, experimental, refinement or atomic coordinate data resulting 
# from the CCDC's data processing and validation procedures.
#
#######################################################################

data_ZARYOI
_symmetry_cell_setting           orthorhombic
_symmetry_space_group_name_H-M   'P 21 21 21'
_symmetry_Int_Tables_number      19
_space_group_name_Hall           'P 2ac 2ab'
loop_
_symmetry_equiv_pos_site_id
_symmetry_equiv_pos_as_xyz
1 x,y,z
2 1/2-x,-y,1/2+z
3 1/2+x,1/2-y,-z
4 -x,1/2+y,1/2-z
_cell_length_a                   12.4421(3)
_cell_length_b                   15.0196(3)
_cell_length_c                   15.1013(3)
_cell_angle_alpha                90
_cell_angle_beta                 90
_cell_angle_gamma                90
_cell_volume                     2822.06
loop_
_atom_site_label
_atom_site_type_symbol
_atom_site_fract_x
_atom_site_fract_y
_atom_site_fract_z
C1 C 0.2377(4) -0.1721(3) 0.6636(3)
C2 C 0.2524(3) -0.2286(3) 0.5803(3)
C3 C 0.3658(3) -0.2685(3) 0.5793(3)
H1 H 0.4185 -0.2209 0.5796
H2 H 0.3765 -0.3041 0.6322
C4 C 0.3818(4) -0.3260(3) 0.4979(3)
H3 H 0.4550 -0.3501 0.4983
C5 C 0.3024(5) -0.4021(3) 0.4980(3)
H4 H 0.3132 -0.4389 0.5500
H5 H 0.3129 -0.4388 0.4459
C6 C 0.1902(5) -0.3642(3) 0.4983(3)
H6 H 0.1382 -0.4133 0.4987
C7 C 0.1722(4) -0.3076(3) 0.4151(3)
H7 H 0.1806 -0.3444 0.3627
H8 H 0.0998 -0.2838 0.4153
C8 C 0.2530(3) -0.2314(2) 0.4126(3)
C9 C 0.2369(3) -0.1736(2) 0.4957(2)
H9 H 0.2880 -0.1248 0.4950
H10 H 0.1651 -0.1484 0.4951
C10 C 0.1720(4) -0.3063(3) 0.5792(3)
H11 H 0.1807 -0.3418 0.6324
H12 H 0.0992 -0.2831 0.5784
C11 C 0.3661(3) -0.2700(3) 0.4152(3)
H13 H 0.3780 -0.3065 0.3631
H14 H 0.4182 -0.2220 0.4146
C12 C 0.2409(4) -0.1733(3) 0.3309(3)
C13 C -0.0037(4) 0.1265(3) 0.6903(3)
H15 H -0.0109 0.1276 0.7516
C14 C 0.0785(4) 0.0739(3) 0.5670(3)
H16 H 0.1300 0.0380 0.5402
C15 C -0.0713(4) 0.1784(3) 0.6413(3)
H17 H -0.1225 0.2132 0.6697
C16 C 0.0124(4) 0.1244(3) 0.5134(3)
H18 H 0.0195 0.1210 0.4522
C17 C -0.0646(4) 0.1801(3) 0.5501(3)
C18 C -0.1318(4) 0.2411(3) 0.4941(4)
H19 H -0.0837 0.2775 0.4588
H20 H -0.1706 0.2809 0.5333
C19 C -0.2133(5) 0.1977(4) 0.4316(4)
H21 H -0.2403 0.2426 0.3910
H22 H -0.1770 0.1526 0.3967
C20 C -0.3042(5) 0.1567(4) 0.4774(3)
H23 H -0.3359 0.2010 0.5162
H24 H -0.2768 0.1092 0.5145
C21 C -0.3939(4) 0.1181(3) 0.4187(3)
C22 C -0.3961(4) 0.1270(4) 0.3267(3)
H25 H -0.3417 0.1582 0.2981
C23 C -0.4751(4) 0.0715(3) 0.4549(3)
H26 H -0.4769 0.0633 0.5159
C24 C -0.4784(4) 0.0901(3) 0.2780(3)
H27 H -0.4779 0.0974 0.2169
C25 C -0.5556(4) 0.0358(3) 0.4033(3)
H28 H -0.6105 0.0043 0.4308
N1 N 0.0723(3) 0.0740(2) 0.6554(2)
N2 N -0.5580(3) 0.0447(2) 0.3145(2)
O1 O 0.1843(3) -0.10063(19) 0.65548(16)
O2 O 0.2761(3) -0.2004(2) 0.73501(19)
O3 O 0.1646(3) -0.1853(2) 0.2782(2)
O4 O 0.3126(3) -0.1155(2) 0.31995(17)
O5 O 0.2904(3) -0.0534(2) 0.82749(18)
H34 H 0.3620 -0.0409 0.8103
H35 H 0.2782 -0.1001 0.8180
O6 O 0.3101(3) 0.0585(2) 0.66139(17)
H36 H 0.3395 0.1107 0.7058
H37 H 0.3745 0.0188 0.6740
Ni1 Ni 0.18122(4) 0.00780(3) 0.73773(3)
N2A N 0.0580(3) -0.0447(2) 0.8145(2)
O4A O 0.1874(3) 0.1155(2) 0.81995(17)
Ni1A Ni -0.68122(4) -0.00780(3) 0.23773(3)
Ni1A_2 Ni 0.31878(4) -0.00780(3) 0.23773(3)
C26 C 0.5670(6) 0.0217(5) 0.7605(6)
H29 H 0.5892 -0.0091 0.8138
H30 H 0.5281 0.0746 0.7786
C27 C 0.6622(8) 0.0494(7) 0.7134(6)
H31 H 0.7190 0.0074 0.7238
H32 H 0.6841 0.1071 0.7340
H33 H 0.6471 0.0522 0.6511
O7 O 0.4972(3) -0.0326(3) 0.7147(4)
O8 O 0.4980(3) 0.2997(2) 0.7221(2)
H38 H 0.4504 0.2635 0.7541
H39 H 0.5718 0.2928 0.7368
loop_
_geom_bond_atom_site_label_1
_geom_bond_atom_site_label_2
_geom_bond_site_symmetry_1
_geom_bond_site_symmetry_2
C1 C2 1_555 1_555
C2 C3 1_555 1_555
C3 H1 1_555 1_555
H2 C3 1_555 1_555
C4 C3 1_555 1_555
H3 C4 1_555 1_555
C5 C4 1_555 1_555
H4 C5 1_555 1_555
H5 C5 1_555 1_555
C6 C5 1_555 1_555
H6 C6 1_555 1_555
C7 C6 1_555 1_555
H7 C7 1_555 1_555
H8 C7 1_555 1_555
C8 C7 1_555 1_555
C9 C2 1_555 1_555
H9 C9 1_555 1_555
H10 C9 1_555 1_555
C10 C2 1_555 1_555
H11 C10 1_555 1_555
H12 C10 1_555 1_555
C11 C4 1_555 1_555
H13 C11 1_555 1_555
H14 C11 1_555 1_555
C12 C8 1_555 1_555
C13 H15 1_555 1_555
C14 H16 1_555 1_555
C15 C13 1_555 1_555
H17 C15 1_555 1_555
C16 C14 1_555 1_555
H18 C16 1_555 1_555
C17 C15 1_555 1_555
C18 C17 1_555 1_555
H19 C18 1_555 1_555
H20 C18 1_555 1_555
C19 C18 1_555 1_555
H21 C19 1_555 1_555
H22 C19 1_555 1_555
C20 C19 1_555 1_555
H23 C20 1_555 1_555
H24 C20 1_555 1_555
C21 C20 1_555 1_555
C22 C21 1_555 1_555
H25 C22 1_555 1_555
C23 C21 1_555 1_555
H26 C23 1_555 1_555
C24 C22 1_555 1_555
H27 C24 1_555 1_555
C25 C23 1_555 1_555
H28 C25 1_555 1_555
C26 H29 1_555 1_555
H30 C26 1_555 1_555
C27 C26 1_555 1_555
H31 C27 1_555 1_555
H32 C27 1_555 1_555
H33 C27 1_555 1_555
N1 C13 1_555 1_555
N2 C24 1_555 1_555
O1 C1 1_555 1_555
O2 C1 1_555 1_555
O3 C12 1_555 1_555
O4 C12 1_555 1_555
O5 H34 1_555 1_555
H35 O5 1_555 1_555
O6 H36 1_555 1_555
H37 O6 1_555 1_555
O7 C26 1_555 1_555
O8 H38 1_555 1_555
H39 O8 1_555 1_555
Ni1 N1 1_555 1_555
N2A Ni1 1_555 1_555
O4A Ni1 1_555 1_555
Ni1A N2 1_555 1_555
Ni1A_2 O4 1_555 1_555
C6 C10 1_555 1_555
C8 C9 1_555 1_555
C8 C11 1_555 1_555
C14 N1 1_555 1_555
C16 C17 1_555 1_555
C25 N2 1_555 1_555
O1 Ni1 1_555 1_555
O5 Ni1 1_555 1_555
O6 Ni1 1_555 1_555

#END
