
#######################################################################
#
#                 Cambridge Crystallographic Data Centre
#                                CCDC 
#
#######################################################################
#
# If this CIF has been generated from an entry in the Cambridge 
# Structural Database, then it will include bibliographic, chemical, 
# crystal, experimental, refinement or atomic coordinate data resulting 
# from the CCDC's data processing and validation procedures.
#
#######################################################################

data_ZASMIR
_symmetry_cell_setting           monoclinic
_symmetry_space_group_name_H-M   'P 21/n'
_symmetry_Int_Tables_number      14
_space_group_name_Hall           '-P 2yn'
loop_
_symmetry_equiv_pos_site_id
_symmetry_equiv_pos_as_xyz
1 x,y,z
2 1/2-x,1/2+y,1/2-z
3 -x,-y,-z
4 1/2+x,1/2-y,1/2+z
_cell_length_a                   10.6583(6)
_cell_length_b                   19.1616(11)
_cell_length_c                   13.8312(8)
_cell_angle_alpha                90
_cell_angle_beta                 103.576(2)
_cell_angle_gamma                90
_cell_volume                     2745.82
loop_
_atom_site_label
_atom_site_type_symbol
_atom_site_fract_x
_atom_site_fract_y
_atom_site_fract_z
Li1 Li 1.0754(12) 0.9300(7) 1.5270(10)
Cl1 Cl 1.0283(2) 0.99701(10) 1.37875(13)
U1 U 1.0000 1.0000 1.0000
O1 O 0.9856(6) 0.8444(4) 1.5032(4)
C1 C 0.6965(7) 1.0100(4) 1.1400(7)
H1 H 0.7490 1.0210 1.2046
H2 H 0.6074 1.0088 1.1428
H3 H 0.7086 1.0450 1.0933
N1 N 1.1622(5) 0.9595(3) 1.1361(4)
H4 H 1.222(8) 0.994(3) 1.146(6)
N2 N 1.0056(5) 0.9088(3) 0.8872(5)
H5 H 1.091(7) 0.898(4) 0.899(5)
N3 N 0.8671(5) 0.9451(3) 1.0920(4)
H6 H 0.895(7) 0.900(4) 1.096(5)
C2 C 1.2365(7) 0.8985(4) 1.1811(5)
O2 O 1.2561(5) 0.9104(3) 1.5795(5)
C3 C 1.1450(9) 0.8433(5) 1.1972(8)
H7 H 1.0982 0.8595 1.2443
H8 H 1.1924 0.8019 1.2225
H9 H 1.0855 0.8328 1.1353
C4 C 0.9403(7) 0.8466(4) 0.8381(6)
C5 C 0.7350(7) 0.9401(5) 1.1075(6)
C6 C 0.8036(8) 0.8661(5) 0.7834(7)
H10 H 0.7584 0.8851 0.8299
H11 H 0.7593 0.8253 0.7528
H12 H 0.8068 0.9002 0.7333
C7 C 1.0107(8) 0.8170(4) 0.7628(6)
H13 H 1.0152 0.8520 0.7141
H14 H 0.9647 0.7771 0.7306
H15 H 1.0965 0.8034 0.7966
C8 C 0.6383(7) 0.9188(5) 1.0114(6)
H16 H 0.6453 0.9503 0.9589
H17 H 0.5523 0.9207 1.0215
H18 H 0.6569 0.8722 0.9935
C9 C 0.7299(8) 0.8855(5) 1.1881(6)
H19 H 0.7439 0.8399 1.1641
H20 H 0.6468 0.8871 1.2037
H21 H 0.7957 0.8956 1.2469
C10 C 1.3248(8) 0.9168(5) 1.2821(6)
H22 H 1.3793 0.9553 1.2743
H23 H 1.3773 0.8772 1.3075
H24 H 1.2733 0.9295 1.3277
C11 C 0.9311(8) 0.7890(4) 0.9141(6)
H25 H 1.0163 0.7767 0.9509
H26 H 0.8896 0.7487 0.8797
H27 H 0.8817 0.8059 0.9591
C12 C 1.3203(9) 0.8708(5) 1.1154(7)
H28 H 1.2670 0.8580 1.0519
H29 H 1.3669 0.8306 1.1461
H30 H 1.3803 0.9063 1.1066
C13 C 1.3608(8) 0.9549(5) 1.5711(7)
H31 H 1.3431 0.9775 1.5065
H32 H 1.3751 0.9906 1.6223
C14 C 0.8462(10) 0.8497(7) 1.4833(8)
H33 H 0.8186 0.8536 1.5451
H34 H 0.8165 0.8906 1.4429
C15 C 1.4752(8) 0.9082(6) 1.5839(8)
H35 H 1.5545 0.9330 1.6127
H36 H 1.4815 0.8878 1.5210
C16 C 0.8958(15) 0.7525(7) 1.3951(11)
H37 H 0.8915 0.7022 1.4017
H38 H 0.8915 0.7642 1.3262
C17 C 1.3090(9) 0.8494(6) 1.6364(10)
H39 H 1.2779 0.8072 1.5999
H40 H 1.2838 0.8484 1.6994
C18 C 1.0173(14) 0.7821(7) 1.4639(10)
H41 H 1.0829 0.7902 1.4269
H42 H 1.0513 0.7494 1.5170
C19 C 1.4474(10) 0.8543(7) 1.6528(10)
H43 H 1.4853 0.8674 1.7212
H44 H 1.4833 0.8097 1.6398
C20 C 0.7945(17) 0.7867(7) 1.4306(10)
H45 H 0.7235 0.7983 1.3750
H46 H 0.7624 0.7558 1.4749
Li2 Li 1.0122(10) 0.9986(7) 1.2068(9)
Li1B Li 0.9246(12) 1.0700(7) 0.4730(10)
Li1B_2 Li 0.9246(12) 1.0700(7) 1.4730(10)
Li1_2 Li 1.0754(12) 0.9300(7) 0.5270(10)
Cl1B Cl 0.9717(2) 1.00299(10) 0.62125(13)
Cl1B_2 Cl 0.9717(2) 1.00299(10) 1.62125(13)
Cl1_2 Cl 1.0283(2) 0.99701(10) 0.37875(13)
O1B O 1.0144(6) 1.1556(4) 0.4968(4)
C1B C 1.3035(7) 0.9900(4) 0.8600(7)
H1B H 1.2510 0.9790 0.7954
H2B H 1.3926 0.9912 0.8572
H3B H 1.2914 0.9550 0.9067
N1B N 0.8378(5) 1.0405(3) 0.8639(4)
H4B H 0.778(8) 1.006(3) 0.854(6)
N2B N 0.9944(5) 1.0912(3) 1.1128(5)
H5B H 0.909(7) 1.102(4) 1.101(5)
N3B N 1.1329(5) 1.0549(3) 0.9080(4)
H6B H 1.105(7) 1.100(4) 0.904(5)
C2B C 0.7635(7) 1.1015(4) 0.8189(5)
O2B O 0.7439(5) 1.0896(3) 0.4205(5)
C3B C 0.8550(9) 1.1567(5) 0.8028(8)
H7B H 0.9018 1.1405 0.7557
H8B H 0.8076 1.1981 0.7775
H9B H 0.9145 1.1672 0.8647
C4B C 1.0597(7) 1.1534(4) 1.1619(6)
C5B C 1.2650(7) 1.0599(5) 0.8925(6)
C6B C 1.1964(8) 1.1339(5) 1.2166(7)
H10B H 1.2416 1.1149 1.1701
H11B H 1.2407 1.1747 1.2472
H12B H 1.1932 1.0998 1.2667
C7B C 0.9893(8) 1.1830(4) 1.2372(6)
H13B H 0.9848 1.1480 1.2859
H14B H 1.0353 1.2229 1.2694
H15B H 0.9035 1.1966 1.2034
C8B C 1.3617(7) 1.0812(5) 0.9886(6)
H16B H 1.3547 1.0497 1.0411
H17B H 1.4477 1.0793 0.9785
H18B H 1.3431 1.1278 1.0065
C9B C 1.2701(8) 1.1145(5) 0.8119(6)
H19B H 1.2561 1.1601 0.8359
H20B H 1.3532 1.1129 0.7963
H21B H 1.2043 1.1044 0.7531
C10B C 0.6752(8) 1.0832(5) 0.7179(6)
H22B H 0.6207 1.0447 0.7257
H23B H 0.6227 1.1228 0.6925
H24B H 0.7267 1.0705 0.6723
C11B C 1.0689(8) 1.2110(4) 1.0859(6)
H25B H 0.9837 1.2233 1.0491
H26B H 1.1104 1.2513 1.1203
H27B H 1.1183 1.1941 1.0409
C12B C 0.6797(9) 1.1292(5) 0.8846(7)
H28B H 0.7330 1.1420 0.9481
H29B H 0.6331 1.1694 0.8539
H30B H 0.6197 1.0937 0.8934
C13B C 0.6392(8) 1.0451(5) 0.4289(7)
H31B H 0.6569 1.0225 0.4935
H32B H 0.6249 1.0094 0.3777
C14B C 1.1538(10) 1.1503(7) 0.5167(8)
H33B H 1.1814 1.1464 0.4549
H34B H 1.1835 1.1094 0.5571
C15B C 0.5248(8) 1.0918(6) 0.4161(8)
H35B H 0.4455 1.0670 0.3873
H36B H 0.5185 1.1122 0.4790
C16B C 1.1042(15) 1.2475(7) 0.6049(11)
H37B H 1.1085 1.2978 0.5983
H38B H 1.1085 1.2358 0.6738
C17B C 0.6910(9) 1.1506(6) 0.3636(10)
H39B H 0.7221 1.1928 0.4001
H40B H 0.7162 1.1516 0.3006
C18B C 0.9827(14) 1.2179(7) 0.5361(10)
H41B H 0.9171 1.2098 0.5731
H42B H 0.9487 1.2506 0.4830
C19B C 0.5526(10) 1.1457(7) 0.3472(10)
H43B H 0.5147 1.1326 0.2788
H44B H 0.5167 1.1903 0.3602
C20B C 1.2055(17) 1.2133(7) 0.5694(10)
H45B H 1.2765 1.2017 0.6250
H46B H 1.2376 1.2442 0.5251
Li2B Li 0.9878(10) 1.0014(7) 0.7932(9)
loop_
_geom_bond_atom_site_label_1
_geom_bond_atom_site_label_2
_geom_bond_site_symmetry_1
_geom_bond_site_symmetry_2
Li1 Cl1 1_555 1_555
Cl1 Li2 1_555 1_555
U1 N1 1_555 1_555
O1 Li1 1_555 1_555
C1 H1 1_555 1_555
H2 C1 1_555 1_555
H3 C1 1_555 1_555
N1 H4 1_555 1_555
N2 U1 1_555 1_555
H5 N2 1_555 1_555
N3 U1 1_555 1_555
H6 N3 1_555 1_555
C2 N1 1_555 1_555
O2 Li1 1_555 1_555
C3 C2 1_555 1_555
H7 C3 1_555 1_555
H8 C3 1_555 1_555
H9 C3 1_555 1_555
C4 N2 1_555 1_555
C5 C1 1_555 1_555
C6 C4 1_555 1_555
H10 C6 1_555 1_555
H11 C6 1_555 1_555
H12 C6 1_555 1_555
C7 C4 1_555 1_555
H13 C7 1_555 1_555
H14 C7 1_555 1_555
H15 C7 1_555 1_555
C8 C5 1_555 1_555
H16 C8 1_555 1_555
H17 C8 1_555 1_555
H18 C8 1_555 1_555
C9 C5 1_555 1_555
H19 C9 1_555 1_555
H20 C9 1_555 1_555
H21 C9 1_555 1_555
C10 C2 1_555 1_555
H22 C10 1_555 1_555
H23 C10 1_555 1_555
H24 C10 1_555 1_555
C11 C4 1_555 1_555
H25 C11 1_555 1_555
H26 C11 1_555 1_555
H27 C11 1_555 1_555
C12 C2 1_555 1_555
H28 C12 1_555 1_555
H29 C12 1_555 1_555
H30 C12 1_555 1_555
C13 O2 1_555 1_555
H31 C13 1_555 1_555
H32 C13 1_555 1_555
C14 O1 1_555 1_555
H33 C14 1_555 1_555
H34 C14 1_555 1_555
C15 C13 1_555 1_555
H35 C15 1_555 1_555
H36 C15 1_555 1_555
C16 H37 1_555 1_555
H38 C16 1_555 1_555
C17 O2 1_555 1_555
H39 C17 1_555 1_555
H40 C17 1_555 1_555
C18 O1 1_555 1_555
H41 C18 1_555 1_555
H42 C18 1_555 1_555
C19 C15 1_555 1_555
H43 C19 1_555 1_555
H44 C19 1_555 1_555
C20 C14 1_555 1_555
H45 C20 1_555 1_555
H46 C20 1_555 1_555
Li2 N1 1_555 1_555
Li1B Cl1B 1_555 1_555
Li1B_2 Cl1 1_555 1_555
Li1_2 Cl1B 1_555 1_555
Cl1B Li2B 1_555 1_555
Cl1B_2 Li1 1_555 1_555
Cl1_2 Li1B 1_555 1_555
O1B Li1B 1_555 1_555
C1B H1B 1_555 1_555
H2B C1B 1_555 1_555
H3B C1B 1_555 1_555
N1B U1 1_555 1_555
H4B N1B 1_555 1_555
N2B U1 1_555 1_555
H5B N2B 1_555 1_555
N3B U1 1_555 1_555
H6B N3B 1_555 1_555
C2B N1B 1_555 1_555
O2B Li1B 1_555 1_555
C3B C2B 1_555 1_555
H7B C3B 1_555 1_555
H8B C3B 1_555 1_555
H9B C3B 1_555 1_555
C4B N2B 1_555 1_555
C5B C1B 1_555 1_555
C6B C4B 1_555 1_555
H10B C6B 1_555 1_555
H11B C6B 1_555 1_555
H12B C6B 1_555 1_555
C7B C4B 1_555 1_555
H13B C7B 1_555 1_555
H14B C7B 1_555 1_555
H15B C7B 1_555 1_555
C8B C5B 1_555 1_555
H16B C8B 1_555 1_555
H17B C8B 1_555 1_555
H18B C8B 1_555 1_555
C9B C5B 1_555 1_555
H19B C9B 1_555 1_555
H20B C9B 1_555 1_555
H21B C9B 1_555 1_555
C10B C2B 1_555 1_555
H22B C10B 1_555 1_555
H23B C10B 1_555 1_555
H24B C10B 1_555 1_555
C11B C4B 1_555 1_555
H25B C11B 1_555 1_555
H26B C11B 1_555 1_555
H27B C11B 1_555 1_555
C12B C2B 1_555 1_555
H28B C12B 1_555 1_555
H29B C12B 1_555 1_555
H30B C12B 1_555 1_555
C13B O2B 1_555 1_555
H31B C13B 1_555 1_555
H32B C13B 1_555 1_555
C14B O1B 1_555 1_555
H33B C14B 1_555 1_555
H34B C14B 1_555 1_555
C15B C13B 1_555 1_555
H35B C15B 1_555 1_555
H36B C15B 1_555 1_555
C16B H37B 1_555 1_555
H38B C16B 1_555 1_555
C17B O2B 1_555 1_555
H39B C17B 1_555 1_555
H40B C17B 1_555 1_555
C18B O1B 1_555 1_555
H41B C18B 1_555 1_555
H42B C18B 1_555 1_555
C19B C15B 1_555 1_555
H43B C19B 1_555 1_555
H44B C19B 1_555 1_555
C20B C14B 1_555 1_555
H45B C20B 1_555 1_555
H46B C20B 1_555 1_555
Li2B N2 1_555 1_555
N3 C5 1_555 1_555
N3 Li2 1_555 1_555
C16 C18 1_555 1_555
C16 C20 1_555 1_555
C17 C19 1_555 1_555
Li2 N2B 1_555 1_555
Li1B_2 Cl1B_2 1_555 1_555
Li1_2 Cl1_2 1_555 1_555
N1B Li2B 1_555 1_555
N3B C5B 1_555 1_555
N3B Li2B 1_555 1_555
C16B C18B 1_555 1_555
C16B C20B 1_555 1_555
C17B C19B 1_555 1_555

#END
