
#######################################################################
#
#                 Cambridge Crystallographic Data Centre
#                                CCDC 
#
#######################################################################
#
# If this CIF has been generated from an entry in the Cambridge 
# Structural Database, then it will include bibliographic, chemical, 
# crystal, experimental, refinement or atomic coordinate data resulting 
# from the CCDC's data processing and validation procedures.
#
#######################################################################

data_ZASRES
_symmetry_cell_setting           hexagonal
_symmetry_space_group_name_H-M   'P 61 2 2'
_symmetry_Int_Tables_number      178
_space_group_name_Hall           "P 61 2' (0,0,5)"
loop_
_symmetry_equiv_pos_site_id
_symmetry_equiv_pos_as_xyz
1 x,y,z
2 -y,x-y,1/3+z
3 -x+y,-x,2/3+z
4 -x,-y,1/2+z
5 y,-x+y,5/6+z
6 x-y,x,1/6+z
7 y,x,1/3-z
8 x-y,-y,-z
9 -x,-x+y,2/3-z
10 -y,-x,5/6-z
11 -x+y,y,1/2-z
12 x,x-y,1/6-z
_cell_length_a                   11.36500(10)
_cell_length_b                   11.36500(10)
_cell_length_c                   61.5100(10)
_cell_angle_alpha                90
_cell_angle_beta                 90
_cell_angle_gamma                120
_cell_volume                     6880.42
loop_
_atom_site_label
_atom_site_type_symbol
_atom_site_fract_x
_atom_site_fract_y
_atom_site_fract_z
Zn1 Zn -0.19021(3) 0.0000 0.0000
C1 C 0.0940(3) 0.9536(3) 0.06233(4)
C2 C 0.2196(3) 1.0797(3) 0.05629(4)
C3 C 0.3472(3) 1.0887(3) 0.05969(4)
C4 C 0.3569(3) 0.9821(3) 0.06928(5)
C5 C 0.2329(3) 0.8581(3) 0.07606(5)
C6 C 0.2121(4) 1.1865(3) 0.04694(5)
H1 H 0.1262 1.1793 0.0445
C7 C 0.3313(5) 1.3047(4) 0.04116(6)
H2 H 0.3261 1.3790 0.0352
C8 C 0.4555(5) 1.3152(4) 0.04392(6)
H3 H 0.5349 1.3961 0.0395
C9 C 0.4684(4) 1.2090(4) 0.05310(6)
C10 C 0.5946(4) 1.2143(5) 0.05649(6)
H4 H 0.6765 1.2934 0.0524
C11 C 0.6001(4) 1.1084(5) 0.06549(7)
H5 H 0.6857 1.1141 0.0674
C12 C 0.4817(4) 0.9909(5) 0.07198(6)
H6 H 0.4872 0.9173 0.0782
C13 C -0.0145(3) 0.7214(3) 0.07678(5)
H7 H -0.0913 0.7372 0.0795
H8 H -0.0004 0.6800 0.0900
C14 C -0.0469(3) 0.6270(3) 0.05780(4)
C15 C 0.0232(3) 0.5689(3) 0.04923(5)
H9 H 0.1013 0.5705 0.0551
C16 C -0.0118(4) 0.4380(3) 0.01400(5)
H10 H -0.0534 0.4449 0.0001
C17 C 0.1400(5) 0.5058(4) 0.01071(9)
H11 H 0.1776 0.6037 0.0088
H12 H 0.1592 0.4680 -0.0022
H13 H 0.1817 0.4896 0.0235
C18 C -0.0706(3) 0.2871(3) 0.01925(4)
C19 C 0.0064(3) -0.1075(3) 0.00715(4)
H14 H -0.0742 -0.1848 0.0122
C20 C 0.1261(3) -0.1111(3) 0.00751(4)
H15 H 0.1269 -0.1891 0.0129
C21 C 0.2454(3) 0.0000 0.0000
C22 C 0.3762(3) 0.0000 0.0000
C23 C 0.3988(3) -0.0835(3) 0.01398(4)
H16 H 0.3294 -0.1427 0.0237
C24 C 0.5222(3) -0.0799(3) 0.01362(4)
H17 H 0.5362 -0.1363 0.0234
N1 N 0.1094(2) 0.8514(2) 0.07204(4)
N2 N -0.1514(3) 0.5993(3) 0.04446(5)
N3 N -0.1486(3) 0.5282(3) 0.02799(5)
N4 N -0.0422(3) 0.5094(2) 0.03080(4)
N5 N -0.0013(3) 0.0000 0.0000
N6 N 0.6229(2) 0.0000 0.0000
O1 O -0.0195(2) 0.9367(2) 0.05905(4)
O2 O 0.2335(2) 0.7614(2) 0.08465(4)
O3 O -0.08484(18) 0.21491(17) 0.00263(3)
O4 O -0.0977(3) 0.2487(2) 0.03817(3)
O5 O -0.2045(2) -0.0185(2) 0.03419(3)
H18 H -0.171(4) 0.059(3) 0.0369(6)
H19 H -0.159(4) -0.038(4) 0.0410(6)
Zn1_2 Zn 0.80979(3) 0.0000 0.0000
C1G C -0.8596(4) -0.9536(3) -0.06233(4)
C2G C -0.8601(4) -1.0797(3) -0.05629(4)
C3G C -0.7415(4) -1.0887(3) -0.05969(4)
C4G C -0.6252(4) -0.9821(3) -0.06928(5)
C5G C -0.6252(4) -0.8581(3) -0.07606(5)
C6G C -0.9744(5) -1.1865(3) -0.04694(5)
H1G H -1.0531 -1.1793 -0.0445
C7G C -0.9734(6) -1.3047(4) -0.04116(6)
H2G H -1.0529 -1.3790 -0.0352
C8G C -0.8597(6) -1.3152(4) -0.04392(6)
H3G H -0.8612 -1.3961 -0.0395
C9G C -0.7406(6) -1.2090(4) -0.05310(6)
C10G C -0.6197(6) -1.2143(5) -0.05649(6)
H4G H -0.6169 -1.2934 -0.0524
C11G C -0.5083(6) -1.1084(5) -0.06549(7)
H5G H -0.4284 -1.1141 -0.0674
C12G C -0.5092(6) -0.9909(5) -0.07198(6)
H6G H -0.4301 -0.9173 -0.0782
C13G C -0.7359(4) -0.7214(3) -0.07678(5)
H7G H -0.8285 -0.7372 -0.0795
H8G H -0.6804 -0.6800 -0.0900
C14G C -0.6739(4) -0.6270(3) -0.05780(4)
C15G C -0.5457(4) -0.5689(3) -0.04923(5)
H9G H -0.4692 -0.5705 -0.0551
C16G C -0.4498(5) -0.4380(3) -0.01400(5)
H10G H -0.4983 -0.4449 -0.0001
C17G C -0.3658(6) -0.5058(4) -0.01071(9)
H11G H -0.4261 -0.6037 -0.0088
H12G H -0.3088 -0.4680 0.0022
H13G H -0.3079 -0.4896 -0.0235
C18G C -0.3577(4) -0.2871(3) -0.01925(4)
C19G C 0.1139(4) 0.1075(3) -0.00715(4)
H14G H 0.1106 0.1848 -0.0122
C20G C 0.2372(4) 0.1111(3) -0.00751(4)
H15G H 0.3160 0.1891 -0.0129
C23G C 0.4823(4) 0.0835(3) -0.01398(4)
H16G H 0.4721 0.1427 -0.0237
C24G C 0.6021(4) 0.0799(3) -0.01362(4)
H17G H 0.6725 0.1363 -0.0234
N1G N -0.7420(3) -0.8514(2) -0.07204(4)
N2G N -0.7507(4) -0.5993(3) -0.04446(5)
N3G N -0.6768(4) -0.5282(3) -0.02799(5)
N4G N -0.5516(4) -0.5094(2) -0.03080(4)
N6_2 N -0.3771(2) 0.0000 0.0000
O1G O -0.9562(3) -0.9367(2) -0.05905(4)
O2G O -0.5279(3) -0.7614(2) -0.08465(4)
O3G O -0.29975(25) -0.21491(17) -0.00263(3)
O4G O -0.3464(4) -0.2487(2) -0.03817(3)
O5G O -0.1860(3) 0.0185(2) -0.03419(3)
H18G H -0.230(5) -0.059(3) -0.0369(6)
H19G H -0.121(6) 0.038(4) -0.0410(6)
O6 O 0.3925(4) 0.7229(4) 0.11742(6)
H20 H 0.3544 0.7313 0.1063
H21 H 0.4654 0.7953 0.1199
O7 O 0.6307(4) 0.9672(3) 0.12678(6)
H22 H 0.6546 0.9374 0.1374
H23 H 0.6591 0.9515 0.1151
O8 O 0.7105(9) 0.8553(5) 0.0833
loop_
_geom_bond_atom_site_label_1
_geom_bond_atom_site_label_2
_geom_bond_site_symmetry_1
_geom_bond_site_symmetry_2
Zn1 N5 1_555 1_555
C1 C2 1_555 1_555
C2 C3 1_555 1_555
C3 C4 1_555 1_555
C4 C5 1_555 1_555
C5 N1 1_555 1_555
C6 C2 1_555 1_555
H1 C6 1_555 1_555
C7 C6 1_555 1_555
H2 C7 1_555 1_555
C8 C7 1_555 1_555
H3 C8 1_555 1_555
C9 C3 1_555 1_555
C10 C9 1_555 1_555
H4 C10 1_555 1_555
C11 C10 1_555 1_555
H5 C11 1_555 1_555
C12 C4 1_555 1_555
H6 C12 1_555 1_555
C13 H7 1_555 1_555
H8 C13 1_555 1_555
C14 C13 1_555 1_555
C15 C14 1_555 1_555
H9 C15 1_555 1_555
C16 H10 1_555 1_555
C17 C16 1_555 1_555
H11 C17 1_555 1_555
H12 C17 1_555 1_555
H13 C17 1_555 1_555
C18 C16 1_555 1_555
C19 H14 1_555 1_555
C20 C19 1_555 1_555
H15 C20 1_555 1_555
C21 C20 1_555 1_555
C22 C21 1_555 1_555
C23 C22 1_555 1_555
H16 C23 1_555 1_555
C24 C23 1_555 1_555
H17 C24 1_555 1_555
N1 C1 1_555 1_555
N2 C14 1_555 1_555
N3 N2 1_555 1_555
N4 C15 1_555 1_555
N5 C19 1_555 1_555
N6 C24 1_555 1_555
O1 C1 1_555 1_555
O2 C5 1_555 1_555
O3 Zn1 1_555 1_555
O4 C18 1_555 1_555
O5 Zn1 1_555 1_555
H18 O5 1_555 1_555
H19 O5 1_555 1_555
O6 H20 1_555 1_555
H21 O6 1_555 1_555
O7 H22 1_555 1_555
H23 O7 1_555 1_555
Zn1_2 N6 1_555 1_555
C1G C2G 1_555 1_555
C2G C3G 1_555 1_555
C3G C4G 1_555 1_555
C4G C5G 1_555 1_555
C5G N1G 1_555 1_555
C6G C2G 1_555 1_555
H1G C6G 1_555 1_555
C7G C6G 1_555 1_555
H2G C7G 1_555 1_555
C8G C7G 1_555 1_555
H3G C8G 1_555 1_555
C9G C3G 1_555 1_555
C10G C9G 1_555 1_555
H4G C10G 1_555 1_555
C11G C10G 1_555 1_555
H5G C11G 1_555 1_555
C12G C4G 1_555 1_555
H6G C12G 1_555 1_555
C13G H7G 1_555 1_555
H8G C13G 1_555 1_555
C14G C13G 1_555 1_555
C15G C14G 1_555 1_555
H9G C15G 1_555 1_555
C16G H10G 1_555 1_555
C17G C16G 1_555 1_555
H11G C17G 1_555 1_555
H12G C17G 1_555 1_555
H13G C17G 1_555 1_555
C18G C16G 1_555 1_555
C19G N5 1_555 1_555
H14G C19G 1_555 1_555
C20G C21 1_555 1_555
H15G C20G 1_555 1_555
C23G C22 1_555 1_555
H16G C23G 1_555 1_555
C24G N6 1_555 1_555
H17G C24G 1_555 1_555
N1G C1G 1_555 1_555
N2G C14G 1_555 1_555
N3G N2G 1_555 1_555
N4G C15G 1_555 1_555
N6_2 Zn1 1_555 1_555
O1G C1G 1_555 1_555
O2G C5G 1_555 1_555
O3G Zn1 1_555 1_555
O4G C18G 1_555 1_555
O5G Zn1 1_555 1_555
H18G O5G 1_555 1_555
H19G O5G 1_555 1_555
C8 C9 1_555 1_555
C11 C12 1_555 1_555
C13 N1 1_555 1_555
C16 N4 1_555 1_555
C18 O3 1_555 1_555
N3 N4 1_555 1_555
C8G C9G 1_555 1_555
C11G C12G 1_555 1_555
C13G N1G 1_555 1_555
C16G N4G 1_555 1_555
C18G O3G 1_555 1_555
C19G C20G 1_555 1_555
C23G C24G 1_555 1_555
N3G N4G 1_555 1_555

#END
