
#######################################################################
#
#                 Cambridge Crystallographic Data Centre
#                                CCDC 
#
#######################################################################
#
# If this CIF has been generated from an entry in the Cambridge 
# Structural Database, then it will include bibliographic, chemical, 
# crystal, experimental, refinement or atomic coordinate data resulting 
# from the CCDC's data processing and validation procedures.
#
#######################################################################

data_ZASSET
_symmetry_cell_setting           hexagonal
_symmetry_space_group_name_H-M   'P 61 2 2'
_symmetry_Int_Tables_number      178
_space_group_name_Hall           "P 61 2' (0,0,5)"
loop_
_symmetry_equiv_pos_site_id
_symmetry_equiv_pos_as_xyz
1 x,y,z
2 -y,x-y,1/3+z
3 -x+y,-x,2/3+z
4 -x,-y,1/2+z
5 y,-x+y,5/6+z
6 x-y,x,1/6+z
7 y,x,1/3-z
8 x-y,-y,-z
9 -x,-x+y,2/3-z
10 -y,-x,5/6-z
11 -x+y,y,1/2-z
12 x,x-y,1/6-z
_cell_length_a                   11.3689(2)
_cell_length_b                   11.3689(2)
_cell_length_c                   61.3502(16)
_cell_angle_alpha                90
_cell_angle_beta                 90
_cell_angle_gamma                120
_cell_volume                     6867.26
loop_
_atom_site_label
_atom_site_type_symbol
_atom_site_fract_x
_atom_site_fract_y
_atom_site_fract_z
Zn1 Zn -0.18765(4) 0.0000 0.0000
C1 C 0.0928(3) 0.9507(3) 0.06267(4)
C2 C 0.2195(3) 1.0750(3) 0.05660(4)
C3 C 0.3460(3) 1.0827(3) 0.06046(4)
C4 C 0.3528(3) 0.9752(3) 0.07067(4)
C5 C 0.2277(3) 0.8527(3) 0.07736(4)
C6 C 0.2147(3) 1.1810(3) 0.04658(4)
H1 H 0.1295 1.1753 0.0440
C7 C 0.3349(4) 1.2971(3) 0.04016(5)
H2 H 0.3309 1.3702 0.0334
C8 C 0.4574(3) 1.3059(3) 0.04358(5)
H3 H 0.5378 1.3851 0.0390
C9 C 0.4673(3) 1.2004(3) 0.05371(5)
C10 C 0.5920(3) 1.2055(4) 0.05753(5)
H4 H 0.6743 1.2839 0.0534
C11 C 0.5964(3) 1.0995(4) 0.06712(5)
H5 H 0.6815 1.1046 0.0693
C12 C 0.4769(3) 0.9834(3) 0.07381(5)
H6 H 0.4814 0.9103 0.0805
C13 C -0.0214(3) 0.7192(3) 0.07760(4)
H7 H -0.0969 0.7374 0.0801
H8 H -0.0096 0.6774 0.0910
C14 C -0.0543(3) 0.6241(3) 0.05869(4)
C15 C 0.0122(3) 0.5612(3) 0.05090(4)
H9 H 0.0857 0.5574 0.0575
C16 C -0.0154(3) 0.4353(3) 0.01508(5)
H10 H -0.0396 0.4533 0.0003
C17 C 0.1373(4) 0.4823(8) 0.01642(12)
H11 H 0.1573 0.4547 0.0306
H12 H 0.1614 0.4382 0.0047
O1 O 0.2153(4) 0.6237(4) 0.01423(6)
H13 H 0.2756 0.6528 0.0239
C18 C -0.0824(3) 0.2826(3) 0.01927(4)
C19 C 0.0092(3) -0.1076(3) 0.00708(4)
H14 H -0.0715 -0.1850 0.0121
C20 C 0.1287(3) -0.1113(3) 0.00748(4)
H15 H 0.1294 -0.1893 0.0128
C21 C 0.2480(3) 0.0000 0.0000
C22 C 0.3787(3) 0.0000 0.0000
C23 C 0.4058(3) -0.0731(3) 0.01534(4)
H16 H 0.3400 -0.1250 0.0261
C24 C 0.5288(3) -0.0702(3) 0.01489(4)
H17 H 0.5460 -0.1202 0.0256
N1 N 0.1052(2) 0.8481(2) 0.07289(3)
N2 N -0.1538(3) 0.6033(3) 0.04439(4)
N3 N -0.1501(3) 0.5307(3) 0.02785(4)
N4 N -0.0487(2) 0.5055(2) 0.03181(4)
N5 N 0.0014(3) 0.0000 0.0000
N6 N 0.6245(3) 0.0000 0.0000
O2 O -0.0201(2) 0.9351(2) 0.05909(3)
O3 O 0.2255(2) 0.7551(2) 0.08607(3)
O4 O -0.08574(18) 0.21411(18) 0.00278(3)
O5 O -0.1232(2) 0.2392(2) 0.03789(3)
O6 O -0.2016(2) -0.0205(2) 0.03437(3)
H18 H -0.179(3) 0.057(2) 0.0373(5)
H19 H -0.148(3) -0.033(4) 0.0411(5)
Zn1_2 Zn 0.81235(4) 0.0000 0.0000
C1G C -0.8579(4) -0.9507(3) -0.06267(4)
C2G C -0.8555(4) -1.0750(3) -0.05660(4)
C3G C -0.7367(4) -1.0827(3) -0.06046(4)
C4G C -0.6224(4) -0.9752(3) -0.07067(4)
C5G C -0.6250(4) -0.8527(3) -0.07736(4)
C6G C -0.9663(4) -1.1810(3) -0.04658(4)
H1G H -1.0458 -1.1753 -0.0440
C7G C -0.9622(5) -1.2971(3) -0.04016(5)
H2G H -1.0393 -1.3702 -0.0334
C8G C -0.8485(4) -1.3059(3) -0.04358(5)
H3G H -0.8473 -1.3851 -0.0390
C9G C -0.7331(4) -1.2004(3) -0.05371(5)
C10G C -0.6135(5) -1.2055(4) -0.05753(5)
H4G H -0.6096 -1.2839 -0.0534
C11G C -0.5031(5) -1.0995(4) -0.06712(5)
H5G H -0.4231 -1.1046 -0.0693
C12G C -0.5065(4) -0.9834(3) -0.07381(5)
H6G H -0.4289 -0.9103 -0.0805
C13G C -0.7406(4) -0.7192(3) -0.07760(4)
H7G H -0.8343 -0.7374 -0.0801
H8G H -0.6870 -0.6774 -0.0910
C14G C -0.6784(4) -0.6241(3) -0.05869(4)
C15G C -0.5490(4) -0.5612(3) -0.05090(4)
H9G H -0.4717 -0.5574 -0.0575
C16G C -0.4507(4) -0.4353(3) -0.01508(5)
H10G H -0.4929 -0.4533 -0.0003
C17G C -0.3450(9) -0.4823(8) -0.01642(12)
H11G H -0.2974 -0.4547 -0.0306
H12G H -0.2768 -0.4382 -0.0047
O1G O -0.4084(6) -0.6237(4) -0.01423(6)
H13G H -0.3772 -0.6528 -0.0239
C18G C -0.3650(4) -0.2826(3) -0.01927(4)
C19G C 0.1168(4) 0.1076(3) -0.00708(4)
H14G H 0.1135 0.1850 -0.0121
C20G C 0.2400(4) 0.1113(3) -0.00748(4)
H15G H 0.3187 0.1893 -0.0128
C23G C 0.4789(4) 0.0731(3) -0.01534(4)
H16G H 0.4650 0.1250 -0.0261
C24G C 0.5990(4) 0.0702(3) -0.01489(4)
H17G H 0.6662 0.1202 -0.0256
N1G N -0.7429(3) -0.8481(2) -0.07289(3)
N2G N -0.7571(4) -0.6033(3) -0.04439(4)
N3G N -0.6808(4) -0.5307(3) -0.02785(4)
N4G N -0.5542(3) -0.5055(2) -0.03181(4)
N6_2 N -0.3755(3) 0.0000 0.0000
O2G O -0.9552(3) -0.9351(2) -0.05909(3)
O3G O -0.5296(3) -0.7551(2) -0.08607(3)
O4G O -0.29985(25) -0.21411(18) -0.00278(3)
O5G O -0.3624(3) -0.2392(2) -0.03789(3)
O6G O -0.1811(3) 0.0205(2) -0.03437(3)
H18G H -0.236(4) -0.057(2) -0.0373(5)
H19G H -0.115(5) 0.033(4) -0.0411(5)
O7 O 0.3932(2) 0.7231(3) 0.11808(4)
H20 H 0.3539 0.7275 0.1068
H21 H 0.4641 0.7996 0.1185
O8 O 0.6239(3) 0.9666(2) 0.12820(4)
H22 H 0.6552 0.9580 0.1163
H23 H 0.6519 0.9497 0.1398
O9 O 0.6851(8) 0.8425(4) 0.0833
C25? C -0.0154(3) 0.4353(3) 0.01508(5)
C26? C 0.1361(6) 0.5076(16) 0.00910(15)
H24? H -0.0611 0.4425 0.0016
H25? H 0.1501 0.4776 -0.0053
H26? H 0.1756 0.6074 0.0089
H27? H 0.2524 0.5397 0.0317
O10? O 0.1932(7) 0.4678(6) 0.02571(10)
loop_
_geom_bond_atom_site_label_1
_geom_bond_atom_site_label_2
_geom_bond_site_symmetry_1
_geom_bond_site_symmetry_2
Zn1 N5 1_555 1_555
C1 C2 1_555 1_555
C2 C3 1_555 1_555
C3 C4 1_555 1_555
C4 C5 1_555 1_555
C5 N1 1_555 1_555
C6 C2 1_555 1_555
H1 C6 1_555 1_555
C7 C6 1_555 1_555
H2 C7 1_555 1_555
C8 C7 1_555 1_555
H3 C8 1_555 1_555
C9 C3 1_555 1_555
C10 C9 1_555 1_555
H4 C10 1_555 1_555
C11 C10 1_555 1_555
H5 C11 1_555 1_555
C12 C4 1_555 1_555
H6 C12 1_555 1_555
C13 H7 1_555 1_555
H8 C13 1_555 1_555
C14 C13 1_555 1_555
C15 C14 1_555 1_555
H9 C15 1_555 1_555
C16 H10 1_555 1_555
C17 C16 1_555 1_555
H11 C17 1_555 1_555
H12 C17 1_555 1_555
O1 C17 1_555 1_555
H13 O1 1_555 1_555
C18 C16 1_555 1_555
C19 H14 1_555 1_555
C20 C19 1_555 1_555
H15 C20 1_555 1_555
C21 C20 1_555 1_555
C22 C21 1_555 1_555
C23 C22 1_555 1_555
H16 C23 1_555 1_555
C24 C23 1_555 1_555
H17 C24 1_555 1_555
N1 C1 1_555 1_555
N2 C14 1_555 1_555
N3 N2 1_555 1_555
N4 C15 1_555 1_555
N5 C19 1_555 1_555
N6 C24 1_555 1_555
O2 C1 1_555 1_555
O3 C5 1_555 1_555
O4 Zn1 1_555 1_555
O5 C18 1_555 1_555
O6 Zn1 1_555 1_555
H18 O6 1_555 1_555
H19 O6 1_555 1_555
O7 H20 1_555 1_555
H21 O7 1_555 1_555
O8 H22 1_555 1_555
H23 O8 1_555 1_555
Zn1_2 N6 1_555 1_555
C1G C2G 1_555 1_555
C2G C3G 1_555 1_555
C3G C4G 1_555 1_555
C4G C5G 1_555 1_555
C5G N1G 1_555 1_555
C6G C2G 1_555 1_555
H1G C6G 1_555 1_555
C7G C6G 1_555 1_555
H2G C7G 1_555 1_555
C8G C7G 1_555 1_555
H3G C8G 1_555 1_555
C9G C3G 1_555 1_555
C10G C9G 1_555 1_555
H4G C10G 1_555 1_555
C11G C10G 1_555 1_555
H5G C11G 1_555 1_555
C12G C4G 1_555 1_555
H6G C12G 1_555 1_555
C13G H7G 1_555 1_555
H8G C13G 1_555 1_555
C14G C13G 1_555 1_555
C15G C14G 1_555 1_555
H9G C15G 1_555 1_555
C16G H10G 1_555 1_555
C17G C16G 1_555 1_555
H11G C17G 1_555 1_555
H12G C17G 1_555 1_555
O1G C17G 1_555 1_555
H13G O1G 1_555 1_555
C18G C16G 1_555 1_555
C19G N5 1_555 1_555
H14G C19G 1_555 1_555
C20G C21 1_555 1_555
H15G C20G 1_555 1_555
C23G C22 1_555 1_555
H16G C23G 1_555 1_555
C24G N6 1_555 1_555
H17G C24G 1_555 1_555
N1G C1G 1_555 1_555
N2G C14G 1_555 1_555
N3G N2G 1_555 1_555
N4G C15G 1_555 1_555
N6_2 Zn1 1_555 1_555
O2G C1G 1_555 1_555
O3G C5G 1_555 1_555
O4G Zn1 1_555 1_555
O5G C18G 1_555 1_555
O6G Zn1 1_555 1_555
H18G O6G 1_555 1_555
H19G O6G 1_555 1_555
C8 C9 1_555 1_555
C11 C12 1_555 1_555
C13 N1 1_555 1_555
C16 N4 1_555 1_555
C18 O4 1_555 1_555
N3 N4 1_555 1_555
C8G C9G 1_555 1_555
C11G C12G 1_555 1_555
C13G N1G 1_555 1_555
C16G N4G 1_555 1_555
C18G O4G 1_555 1_555
C19G C20G 1_555 1_555
C23G C24G 1_555 1_555
N3G N4G 1_555 1_555

#END
