
#######################################################################
#
#                 Cambridge Crystallographic Data Centre
#                                CCDC 
#
#######################################################################
#
# If this CIF has been generated from an entry in the Cambridge 
# Structural Database, then it will include bibliographic, chemical, 
# crystal, experimental, refinement or atomic coordinate data resulting 
# from the CCDC's data processing and validation procedures.
#
#######################################################################

data_ZASSOD
_symmetry_cell_setting           orthorhombic
_symmetry_space_group_name_H-M   'P n m a'
_symmetry_Int_Tables_number      62
_space_group_name_Hall           '-P 2ac 2n'
loop_
_symmetry_equiv_pos_site_id
_symmetry_equiv_pos_as_xyz
1 x,y,z
2 1/2-x,-y,1/2+z
3 1/2+x,1/2-y,1/2-z
4 -x,1/2+y,-z
5 -x,-y,-z
6 1/2+x,y,1/2-z
7 1/2-x,1/2+y,1/2+z
8 x,1/2-y,z
_cell_length_a                   15.6189(9)
_cell_length_b                   11.2218(7)
_cell_length_c                   9.7123(6)
_cell_angle_alpha                90
_cell_angle_beta                 90
_cell_angle_gamma                90
_cell_volume                     1702.3
loop_
_atom_site_label
_atom_site_type_symbol
_atom_site_fract_x
_atom_site_fract_y
_atom_site_fract_z
Ag1 Ag 0.02269(4) 0.2500 -0.26229(7)
Ag2 Ag 0.15217(4) 0.2500 0.12697(7)
Cl1 Cl 0.23179(14) 0.2500 -0.2362(3)
O1 O 0.1645(5) 0.2500 -0.3361(9)
O2 O 0.2119(7) 0.2936(10) -0.1089(10)
O3 O 0.3070(7) 0.2940(13) -0.2863(11)
O4 O 0.2319(11) 0.1204(12) -0.2156(18)
N1 N -0.0532(3) 0.0829(4) -0.3430(5)
N2 N 0.0172(3) 0.0888(4) -0.0903(5)
N3 N -0.1381(3) -0.0828(4) -0.2780(5)
N4 N -0.0562(3) -0.0883(4) -0.0313(5)
C1 C -0.0892(4) 0.0811(6) -0.4679(7)
H1 H -0.0709 0.1371 -0.5351
C2 C -0.1517(4) 0.0008(6) -0.5016(7)
H2 H -0.1783 0.0016 -0.5896
C3 C -0.1742(4) -0.0807(6) -0.4034(7)
H3 H -0.2170 -0.1379 -0.4247
C4 C -0.0788(4) 0.0002(5) -0.2562(6)
C5 C -0.0372(3) 0.0006(5) -0.1180(6)
Ag1C Ag -0.02269(4) -0.2500 0.26229(7)
Ag2C Ag -0.15217(4) -0.2500 -0.12697(7)
O2G O 0.2119(7) 0.2064(10) -0.1089(10)
O3G O 0.3070(7) 0.2060(13) -0.2863(11)
O4G O 0.2319(11) 0.3796(12) -0.2156(18)
N1D N 0.0532(3) -0.0829(4) 0.3430(5)
N1G N -0.0532(3) 0.4171(4) -0.3430(5)
N2D N -0.0172(3) -0.0888(4) 0.0903(5)
N2G N 0.0172(3) 0.4112(4) -0.0903(5)
N3D N 0.1381(3) 0.0828(4) 0.2780(5)
N3C N 0.1381(3) 0.4172(4) 0.2780(5)
N4D N 0.0562(3) 0.0883(4) 0.0313(5)
C1D C 0.0892(4) -0.0811(6) 0.4679(7)
H1D H 0.0709 -0.1371 0.5351
C2D C 0.1517(4) -0.0008(6) 0.5016(7)
H2D H 0.1783 -0.0016 0.5896
C3D C 0.1742(4) 0.0807(6) 0.4034(7)
H3D H 0.2170 0.1379 0.4247
C4D C 0.0788(4) -0.0002(5) 0.2562(6)
C5D C 0.0372(3) -0.0006(5) 0.1180(6)
Cl2 Cl -0.38330(12) -0.2500 -0.3056(2)
O5 O -0.3157(4) -0.2500 -0.2089(7)
O6 O -0.3752(7) -0.1764(12) -0.4213(12)
O7 O -0.4661(4) -0.2500 -0.2419(7)
O8 O -0.3772(7) -0.3742(10) -0.3455(14)
O6G O -0.3752(7) -0.3236(12) -0.4213(12)
O8G O -0.3772(7) -0.1258(10) -0.3455(14)
loop_
_geom_bond_atom_site_label_1
_geom_bond_atom_site_label_2
_geom_bond_site_symmetry_1
_geom_bond_site_symmetry_2
Ag1 O1 1_555 1_555
Ag2 O2 1_555 1_555
Cl1 O1 1_555 1_555
Cl2 O5 1_555 1_555
O2 Cl1 1_555 1_555
O3 Cl1 1_555 1_555
O4 Cl1 1_555 1_555
O6 Cl2 1_555 1_555
O7 Cl2 1_555 1_555
O8 Cl2 1_555 1_555
N1 Ag1 1_555 1_555
N2 Ag1 1_555 1_555
N3 C3 1_555 1_555
N4 C5 1_555 1_555
C1 N1 1_555 1_555
H1 C1 1_555 1_555
C2 C1 1_555 1_555
H2 C2 1_555 1_555
C3 C2 1_555 1_555
H3 C3 1_555 1_555
C4 N1 1_555 1_555
C5 N2 1_555 1_555
Ag1C N1D 1_555 1_555
Ag2C N3 1_555 1_555
O2G Ag2 1_555 1_555
O3G Cl1 1_555 1_555
O4G Cl1 1_555 1_555
O6G Cl2 1_555 1_555
O8G Cl2 1_555 1_555
N1D C1D 1_555 1_555
N1G Ag1 1_555 1_555
N2D N4 1_555 1_555
N2G Ag1 1_555 1_555
N3D Ag2 1_555 1_555
N3C Ag2 1_555 1_555
N4D N2 1_555 1_555
C1D H1D 1_555 1_555
C2D C1D 1_555 1_555
H2D C2D 1_555 1_555
C3D N3D 1_555 1_555
H3D C3D 1_555 1_555
C4D N1D 1_555 1_555
C5D N2D 1_555 1_555
Cl1 O2G 1_555 1_555
O2 O2G 1_555 1_555
O2 O4G 1_555 1_555
O3 O3G 1_555 1_555
O3 O4G 1_555 1_555
O4 O2G 1_555 1_555
O4 O3G 1_555 1_555
O6 O6G 1_555 1_555
O6 O8G 1_555 1_555
O8 O6G 1_555 1_555
N3 C4 1_555 1_555
C4 C5 1_555 1_555
Ag1C N2D 1_555 1_555
N3D C4D 1_555 1_555
N4D C5D 1_555 1_555
C2D C3D 1_555 1_555
C4D C5D 1_555 1_555

#END
