
#######################################################################
#
#                 Cambridge Crystallographic Data Centre
#                                CCDC 
#
#######################################################################
#
# If this CIF has been generated from an entry in the Cambridge 
# Structural Database, then it will include bibliographic, chemical, 
# crystal, experimental, refinement or atomic coordinate data resulting 
# from the CCDC's data processing and validation procedures.
#
#######################################################################

data_ZATLEL
_symmetry_cell_setting           orthorhombic
_symmetry_space_group_name_H-M   'P b c a'
_symmetry_Int_Tables_number      61
_space_group_name_Hall           '-P 2ac 2ab'
loop_
_symmetry_equiv_pos_site_id
_symmetry_equiv_pos_as_xyz
1 x,y,z
2 1/2-x,-y,1/2+z
3 1/2+x,1/2-y,-z
4 -x,1/2+y,1/2-z
5 -x,-y,-z
6 1/2+x,y,1/2-z
7 1/2-x,1/2+y,z
8 x,1/2-y,1/2+z
_cell_length_a                   12.492(2)
_cell_length_b                   8.241(1)
_cell_length_c                   40.335(4)
_cell_angle_alpha                90
_cell_angle_beta                 90
_cell_angle_gamma                90
_cell_volume                     4152.35
loop_
_atom_site_label
_atom_site_type_symbol
_atom_site_fract_x
_atom_site_fract_y
_atom_site_fract_z
K1 K 0.7602(1) -0.1477(2) 0.61288(4)
O1 O 0.4730(4) -0.1067(6) 0.5809(1)
O2 O 0.9950(5) -0.1262(8) 0.6149(2)
O4 O 0.7251(4) -0.4073(6) 0.5675(1)
O5 O 0.4797(4) -0.0355(7) 0.6407(1)
O6 O 0.7740(4) 0.1304(6) 0.6638(1)
N1 N 0.5616(5) -0.2054(7) 0.5775(1)
N2 N 0.6383(5) -0.4443(7) 0.4533(1)
N3 N 0.5763(5) 0.0234(7) 0.6468(2)
N4 N 0.6709(4) 0.1516(7) 0.7771(1)
C1 C 0.5768(6) -0.2571(8) 0.5472(2)
C2 C 0.6665(6) -0.3692(8) 0.5430(2)
C3 C 0.6850(6) -0.4275(8) 0.5107(2)
C4 C 0.6227(6) -0.3871(8) 0.4844(2)
C5 C 0.5313(6) -0.2753(8) 0.4883(2)
C6 C 0.5115(6) -0.2159(8) 0.5191(2)
C7 C 0.7241(7) -0.5571(9) 0.4455(2)
C8 C 0.7269(7) -0.589(1) 0.4082(2)
C9 C 0.4626(6) -0.2297(9) 0.4594(2)
C10 C 0.6010(6) 0.0399(8) 0.6789(2)
C11 C 0.7067(6) 0.1036(8) 0.6865(2)
C12 C 0.7247(5) 0.1513(8) 0.7201(2)
C13 C 0.6526(5) 0.1125(7) 0.7449(2)
C14 C 0.5540(5) 0.0256(8) 0.7376(2)
C15 C 0.5311(6) -0.0048(8) 0.7055(2)
C16 C 0.7666(6) 0.2388(9) 0.7881(2)
C17 C 0.7672(7) 0.260(1) 0.8254(2)
C18 C 0.4801(6) -0.023(1) 0.7652(2)
H1 H 0.499(8) -0.08(1) 0.608(3)
H2 H 0.7431 -0.4994 0.5070
H3 H 0.4525 -0.1444 0.5220
H4 H 0.581(6) -0.423(9) 0.439(2)
H5 H 0.7123 -0.6563 0.4569
H6 H 0.7905 -0.5119 0.4522
H7 H 0.7831 -0.6631 0.4033
H8 H 0.6604 -0.6347 0.4014
H9 H 0.7387 -0.4903 0.3967
H10 H 0.4077 -0.1575 0.4663
H11 H 0.5055 -0.1781 0.4430
H12 H 0.4312 -0.3247 0.4502
H13 H 0.7881 0.2083 0.7257
H14 H 0.4657 -0.0581 0.7003
H15 H 0.609(6) 0.147(8) 0.795(4)
H16 H 0.8283 0.1792 0.7816
H17 H 0.7680 0.3427 0.7779
H18 H 0.7057 0.3196 0.8320
H19 H 0.7660 0.1560 0.8357
H20 H 0.8299 0.3164 0.8319
H21 H 0.5167 -0.0921 0.7801
H22 H 0.4566 0.0716 0.7766
H23 H 0.4198 -0.0779 0.7562
O4F O 0.7749(4) 0.0927(6) 0.5675(1)
O6F O 0.7260(4) -0.3696(6) 0.6638(1)
K1F K 0.7398(1) -0.6477(2) 0.61288(4)
K1F_2 K 0.7398(1) 0.3523(2) 0.61288(4)
O3 O 0.9974(4) 0.1357(7) 0.6609(1)
loop_
_geom_bond_atom_site_label_1
_geom_bond_atom_site_label_2
_geom_bond_site_symmetry_1
_geom_bond_site_symmetry_2
K1 O2 1_555 1_555
O1 N1 1_555 1_555
O4 K1 1_555 1_555
O5 N3 1_555 1_555
O6 K1 1_555 1_555
N1 K1 1_555 1_555
N2 C4 1_555 1_555
N3 K1 1_555 1_555
N4 C13 1_555 1_555
C1 N1 1_555 1_555
C2 O4 1_555 1_555
C3 C2 1_555 1_555
C4 C3 1_555 1_555
C5 C4 1_555 1_555
C6 C1 1_555 1_555
C7 N2 1_555 1_555
C8 C7 1_555 1_555
C9 C5 1_555 1_555
C10 N3 1_555 1_555
C11 O6 1_555 1_555
C12 C11 1_555 1_555
C13 C12 1_555 1_555
C14 C13 1_555 1_555
C15 C10 1_555 1_555
C16 N4 1_555 1_555
C17 C16 1_555 1_555
C18 C14 1_555 1_555
H1 O1 1_555 1_555
H2 C3 1_555 1_555
H3 C6 1_555 1_555
H4 N2 1_555 1_555
H5 C7 1_555 1_555
H6 C7 1_555 1_555
H7 C8 1_555 1_555
H8 C8 1_555 1_555
H9 C8 1_555 1_555
H10 C9 1_555 1_555
H11 C9 1_555 1_555
H12 C9 1_555 1_555
H13 C12 1_555 1_555
H14 C15 1_555 1_555
H15 N4 1_555 1_555
H16 C16 1_555 1_555
H17 C16 1_555 1_555
H18 C17 1_555 1_555
H19 C17 1_555 1_555
H20 C17 1_555 1_555
H21 C18 1_555 1_555
H22 C18 1_555 1_555
H23 C18 1_555 1_555
O4F K1 1_555 1_555
O6F K1 1_555 1_555
K1F O4 1_555 1_555
K1F_2 O6 1_555 1_555
C1 C2 1_555 1_555
C5 C6 1_555 1_555
C10 C11 1_555 1_555
C14 C15 1_555 1_555
O4F K1F_2 1_555 1_555
O6F K1F 1_555 1_555

#END
