
#######################################################################
#
#                 Cambridge Crystallographic Data Centre
#                                CCDC 
#
#######################################################################
#
# If this CIF has been generated from an entry in the Cambridge 
# Structural Database, then it will include bibliographic, chemical, 
# crystal, experimental, refinement or atomic coordinate data resulting 
# from the CCDC's data processing and validation procedures.
#
#######################################################################

data_ZAVQIY
_symmetry_cell_setting           monoclinic
_symmetry_space_group_name_H-M   'C 2/c'
_symmetry_Int_Tables_number      15
_space_group_name_Hall           '-C 2yn'
loop_
_symmetry_equiv_pos_site_id
_symmetry_equiv_pos_as_xyz
1 x,y,z
2 -x,y,1/2-z
3 1/2+x,1/2+y,z
4 1/2-x,1/2+y,1/2-z
5 -x,-y,-z
6 x,-y,1/2+z
7 1/2-x,1/2-y,-z
8 1/2+x,1/2-y,1/2+z
_cell_length_a                   23.5619(12)
_cell_length_b                   15.6714(8)
_cell_length_c                   16.1158(8)
_cell_angle_alpha                90
_cell_angle_beta                 124.2380(10)
_cell_angle_gamma                90
_cell_volume                     4919.51
loop_
_atom_site_label
_atom_site_type_symbol
_atom_site_fract_x
_atom_site_fract_y
_atom_site_fract_z
Gd1 Gd 0.689700(9) -0.327870(12) -0.122240(13)
C1 C 0.4025(2) -0.2241(3) -0.5289(3)
C2 C 0.4556(2) -0.2586(3) -0.4388(3)
H1 H 0.4470 -0.2803 -0.3918
C3 C 0.5215(2) -0.2613(3) -0.4177(3)
C4 C 0.5343(2) -0.2277(3) -0.4858(3)
H2 H 0.5792 -0.2299 -0.4719
C5 C 0.4814(2) -0.1913(3) -0.5733(3)
C6 C 0.4152(2) -0.1892(3) -0.5959(3)
H3 H 0.3790 -0.1640 -0.6566
C7 C 0.4536(2) -0.0947(3) -0.7021(3)
C8 C 0.3992(2) -0.1104(3) -0.8009(3)
C9 C 0.3577(2) -0.0444(3) -0.8619(3)
H4 H 0.3211 -0.0557 -0.9293
C10 C 0.3693(2) 0.0383(3) -0.8252(3)
C11 C 0.4248(2) 0.0540(3) -0.7275(3)
H5 H 0.4340 0.1106 -0.7020
C12 C 0.4667(2) -0.0122(3) -0.6670(3)
H6 H 0.5048 -0.0005 -0.6007
C13 C 0.3297(2) -0.2234(3) -0.5579(3)
C14 C 0.5800(2) -0.2970(3) -0.3205(3)
C15 C 0.3215(2) 0.1094(3) -0.8890(3)
C16 C 0.5753(3) -0.4564(4) -0.1123(5)
H7 H 0.5379 -0.4209 -0.1587
C17 C 0.4907(3) -0.5544(4) -0.1291(5)
H8 H 0.4596 -0.5087 -0.1723
H9 H 0.4803 -0.6066 -0.1687
H10 H 0.4846 -0.5650 -0.0746
C18 C 0.6163(3) -0.5869(4) -0.0188(5)
H11 H 0.6606 -0.5610 0.0038
H12 H 0.6143 -0.5980 0.0394
H13 H 0.6111 -0.6406 -0.0535
N1 N 0.3832(2) -0.1962(3) -0.8438(3)
N2 N 0.7298(3) -0.5817(3) -0.2170(4)
N3 N 0.5613(2) -0.5290(3) -0.0870(4)
O1 O 0.28590(14) -0.1836(2) -0.6353(2)
O2 O 0.31456(15) -0.26268(19) -0.5045(2)
O3 O 0.56901(14) -0.32144(19) -0.2556(2)
O4 O 0.63855(14) -0.3001(2) -0.3041(2)
O5 O 0.4056(3) -0.2576(2) -0.7880(3)
O6 O 0.3474(2) -0.2026(3) -0.9358(3)
O7 O 0.27821(14) 0.09352(18) -0.9804(2)
O8 O 0.32951(16) 0.17843(18) -0.8451(2)
O9 O 0.49758(16) -0.1578(2) -0.6374(2)
O10 O 0.6883(2) -0.4599(2) -0.1981(3)
O11 O 0.6337(2) -0.4313(2) -0.0798(3)
C19 C 0.7363(7) -0.5071(8) -0.1688(10)
H14 H 0.7797 -0.4921 -0.1107
C20 C 0.6901(6) -0.5744(7) -0.3299(7)
H15 H 0.6788 -0.5144 -0.3496
H16 H 0.7181 -0.5964 -0.3527
H17 H 0.6477 -0.6077 -0.3607
C21 C 0.7520(7) -0.6735(7) -0.1805(9)
H18 H 0.7128 -0.7055 -0.1905
H19 H 0.7679 -0.7005 -0.2187
H20 H 0.7892 -0.6732 -0.1090
Gd1A Gd 0.310300(9) -0.327870(12) -0.377760(13)
Gd1G Gd 0.189700(9) -0.172130(12) -0.622240(13)
Gd1B Gd 0.189700(9) 0.172130(12) -1.122240(13)
Gd1D Gd 0.310300(9) 0.327870(12) -0.877760(13)
O1G O 0.78590(14) -0.3164(2) -0.1353(2)
O2A O 0.68544(15) -0.26268(19) 0.0045(2)
O2G O 0.81456(15) -0.23732(19) -0.0045(2)
O7B O 0.77821(14) -0.40648(18) 0.0196(2)
O8D O 0.67049(16) -0.17843(18) -0.1549(2)
O12 O 0.2518(5) -0.1595(7) -0.8407(8)
C22? C 0.2144(7) 0.0311(8) -0.6698(11)
C23? C 0.1759(8) 0.1046(10) -0.8038(11)
C24? C 0.2040(5) -0.6310(7) -0.3287(8)
H21? H 0.2239 0.0505 -0.6073
H22? H 0.1563 0.0545 -0.8476
H23? H 0.1892 0.1470 -0.8345
H24? H 0.1417 0.1293 -0.7944
H25? H 0.1683 -0.5935 -0.3354
H26? H 0.1896 -0.6521 -0.3951
H27? H 0.2111 -0.6794 -0.2853
loop_
_geom_bond_atom_site_label_1
_geom_bond_atom_site_label_2
_geom_bond_site_symmetry_1
_geom_bond_site_symmetry_2
Gd1 O3 1_555 1_555
C1 C2 1_555 1_555
C2 H1 1_555 1_555
C3 C2 1_555 1_555
C4 C3 1_555 1_555
H2 C4 1_555 1_555
C5 C4 1_555 1_555
C6 C1 1_555 1_555
H3 C6 1_555 1_555
C7 C8 1_555 1_555
C8 C9 1_555 1_555
C9 H4 1_555 1_555
C10 C9 1_555 1_555
C11 C10 1_555 1_555
H5 C11 1_555 1_555
C12 C7 1_555 1_555
H6 C12 1_555 1_555
C13 C1 1_555 1_555
C14 C3 1_555 1_555
C15 C10 1_555 1_555
C16 H7 1_555 1_555
C17 H8 1_555 1_555
H9 C17 1_555 1_555
H10 C17 1_555 1_555
C18 H11 1_555 1_555
H12 C18 1_555 1_555
H13 C18 1_555 1_555
N1 C8 1_555 1_555
N2 C19 1_555 1_555
N3 C16 1_555 1_555
O1 C13 1_555 1_555
O2 C13 1_555 1_555
O3 C14 1_555 1_555
O4 Gd1 1_555 1_555
O5 N1 1_555 1_555
O6 N1 1_555 1_555
O7 C15 1_555 1_555
O8 C15 1_555 1_555
O9 C5 1_555 1_555
O10 Gd1 1_555 1_555
O11 Gd1 1_555 1_555
C19 O10 1_555 1_555
H14 C19 1_555 1_555
C20 N2 1_555 1_555
H15 C20 1_555 1_555
H16 C20 1_555 1_555
H17 C20 1_555 1_555
C21 N2 1_555 1_555
H18 C21 1_555 1_555
H19 C21 1_555 1_555
H20 C21 1_555 1_555
Gd1A O2 1_555 1_555
Gd1G O1 1_555 1_555
Gd1B O7 1_555 1_555
Gd1D O8 1_555 1_555
O1G Gd1 1_555 1_555
O2A Gd1 1_555 1_555
O2G Gd1 1_555 1_555
O7B Gd1 1_555 1_555
O8D Gd1 1_555 1_555
C5 C6 1_555 1_555
C7 O9 1_555 1_555
C11 C12 1_555 1_555
C14 O4 1_555 1_555
C16 O11 1_555 1_555
C17 N3 1_555 1_555
C18 N3 1_555 1_555
O2 Gd1G 1_555 1_555

#END
