
#######################################################################
#
#                 Cambridge Crystallographic Data Centre
#                                CCDC 
#
#######################################################################
#
# If this CIF has been generated from an entry in the Cambridge 
# Structural Database, then it will include bibliographic, chemical, 
# crystal, experimental, refinement or atomic coordinate data resulting 
# from the CCDC's data processing and validation procedures.
#
#######################################################################

data_ZAVQUK
_symmetry_cell_setting           monoclinic
_symmetry_space_group_name_H-M   'C 2/c'
_symmetry_Int_Tables_number      15
_space_group_name_Hall           '-C 2yn'
loop_
_symmetry_equiv_pos_site_id
_symmetry_equiv_pos_as_xyz
1 x,y,z
2 -x,y,1/2-z
3 1/2+x,1/2+y,z
4 1/2-x,1/2+y,1/2-z
5 -x,-y,-z
6 x,-y,1/2+z
7 1/2-x,1/2-y,-z
8 1/2+x,1/2-y,1/2+z
_cell_length_a                   23.571(4)
_cell_length_b                   15.673(3)
_cell_length_c                   16.082(3)
_cell_angle_alpha                90
_cell_angle_beta                 124.154(2)
_cell_angle_gamma                90
_cell_volume                     4916.49
loop_
_atom_site_label
_atom_site_type_symbol
_atom_site_fract_x
_atom_site_fract_y
_atom_site_fract_z
Dy1 Dy -0.189520(13) -0.328020(18) -0.37646(2)
C1 C 0.1328(3) 0.0395(4) 0.3265(5)
C2 C 0.1436(3) -0.0427(4) 0.3627(5)
H1 H 0.1799 -0.0540 0.4304
C3 C 0.1024(3) -0.1089(4) 0.3025(5)
C4 C 0.0479(3) -0.0931(4) 0.2034(5)
C5 C 0.0344(3) -0.0100(5) 0.1675(5)
H2 H -0.0040 0.0019 0.1016
C6 C 0.0770(3) 0.0554(5) 0.2278(5)
H3 H 0.0683 0.1119 0.2021
C7 C 0.0194(3) -0.1898(4) 0.0735(5)
C8 C 0.0850(3) -0.1894(4) 0.0957(5)
H4 H 0.1216 -0.1652 0.1568
C9 C 0.0972(3) -0.2247(4) 0.0280(5)
C10 C 0.0435(3) -0.2594(4) -0.0621(5)
H5 H 0.0514 -0.2817 -0.1097
C11 C -0.0223(3) -0.2608(4) -0.0816(5)
C12 C -0.0338(3) -0.2266(4) -0.0126(5)
H6 H -0.0782 -0.2288 -0.0250
C13 C 0.1797(3) 0.1108(4) 0.3907(5)
C14 C 0.1693(3) -0.2258(4) 0.0553(5)
C15 C -0.0810(3) -0.2962(4) -0.1799(5)
N1 N 0.1177(3) -0.1946(4) 0.3448(6)
O1 O 0.1725(2) 0.1797(3) 0.3456(3)
O2 O 0.2221(2) 0.0958(3) 0.4821(3)
O3 O 0.1533(3) -0.2005(4) 0.4370(5)
O4 O 0.0949(4) -0.2563(4) 0.2888(5)
O5 O 0.2143(2) -0.1874(3) 0.1330(3)
O6 O 0.1825(2) -0.2658(3) -0.0005(3)
O7 O -0.0705(2) -0.3210(3) -0.2453(3)
O8 O -0.1395(2) -0.2990(3) -0.1957(3)
O9 O 0.0035(2) -0.1561(3) 0.1387(4)
N2 N -0.2307(4) -0.5806(5) -0.2832(6)
O10 O -0.1900(3) -0.4566(4) -0.3008(5)
C16 C -0.2283(5) -0.5145(6) -0.3292(7)
H7 H -0.2641 -0.5123 -0.3986
C17 C -0.2962(10) -0.6267(13) -0.3271(14)
H8 H -0.3308 -0.5878 -0.3329
H9 H -0.3115 -0.6480 -0.3939
H10 H -0.2897 -0.6748 -0.2837
C18 C -0.1841(5) -0.5854(6) -0.1773(7)
H11 H -0.1704 -0.5277 -0.1495
H12 H -0.2062 -0.6141 -0.1485
H13 H -0.1435 -0.6178 -0.1608
N3 N -0.0619(4) -0.5289(4) -0.4131(6)
O11 O -0.1346(3) -0.4333(4) -0.4171(5)
C19 C -0.0765(5) -0.4576(5) -0.3865(7)
H14 H -0.0393 -0.4220 -0.3400
C20 C 0.0079(4) -0.5544(5) -0.3709(7)
H15 H 0.0390 -0.5089 -0.3274
H16 H 0.0179 -0.6066 -0.3315
H17 H 0.0142 -0.5651 -0.4253
C21 C -0.1160(4) -0.5885(5) -0.4805(7)
H18 H -0.1608 -0.5637 -0.5037
H19 H -0.1138 -0.6001 -0.5385
H20 H -0.1100 -0.6420 -0.4447
Dy1B Dy 0.310480(13) 0.171980(18) 0.62354(2)
Dy1G Dy 0.310480(13) -0.171980(18) 0.12354(2)
Dy1A Dy 0.189520(13) -0.328020(18) -0.12354(2)
Dy1D Dy 0.189520(13) 0.328020(18) 0.37646(2)
O1D O -0.1725(2) -0.1797(3) -0.3456(3)
O2B O -0.2779(2) -0.4042(3) -0.5179(3)
O5G O -0.2857(2) -0.3126(3) -0.3670(3)
O6A O -0.1825(2) -0.2658(3) -0.4995(3)
O12 O 0.2546(9) 0.3414(16) 0.1649(18)
C22? C 0.2488(11) 0.6744(12) 0.3188(15)
H21? H 0.2081 0.7034 0.3073
H22? H 0.2643 0.7035 0.2811
H23? H 0.2854 0.6757 0.3907
loop_
_geom_bond_atom_site_label_1
_geom_bond_atom_site_label_2
_geom_bond_site_symmetry_1
_geom_bond_site_symmetry_2
Dy1 O7 1_555 1_555
C1 C2 1_555 1_555
C2 H1 1_555 1_555
C3 C2 1_555 1_555
C4 C3 1_555 1_555
C5 C4 1_555 1_555
H2 C5 1_555 1_555
C6 C1 1_555 1_555
H3 C6 1_555 1_555
C7 C8 1_555 1_555
C8 H4 1_555 1_555
C9 C8 1_555 1_555
C10 C9 1_555 1_555
H5 C10 1_555 1_555
C11 C10 1_555 1_555
C12 C7 1_555 1_555
H6 C12 1_555 1_555
C13 C1 1_555 1_555
C14 C9 1_555 1_555
C15 C11 1_555 1_555
N1 C3 1_555 1_555
O1 C13 1_555 1_555
O2 C13 1_555 1_555
O3 N1 1_555 1_555
O4 N1 1_555 1_555
O5 C14 1_555 1_555
O6 C14 1_555 1_555
O7 C15 1_555 1_555
O8 Dy1 1_555 1_555
O9 C4 1_555 1_555
N2 C16 1_555 1_555
O10 Dy1 1_555 1_555
C16 O10 1_555 1_555
H7 C16 1_555 1_555
C17 N2 1_555 1_555
H8 C17 1_555 1_555
H9 C17 1_555 1_555
H10 C17 1_555 1_555
C18 N2 1_555 1_555
H11 C18 1_555 1_555
H12 C18 1_555 1_555
H13 C18 1_555 1_555
N3 C19 1_555 1_555
O11 Dy1 1_555 1_555
C19 O11 1_555 1_555
H14 C19 1_555 1_555
C20 N3 1_555 1_555
H15 C20 1_555 1_555
H16 C20 1_555 1_555
H17 C20 1_555 1_555
C21 N3 1_555 1_555
H18 C21 1_555 1_555
H19 C21 1_555 1_555
H20 C21 1_555 1_555
Dy1B O2 1_555 1_555
Dy1G O5 1_555 1_555
Dy1A O6 1_555 1_555
Dy1D O1 1_555 1_555
O1D Dy1 1_555 1_555
O2B Dy1 1_555 1_555
O5G Dy1 1_555 1_555
O6A Dy1 1_555 1_555
C5 C6 1_555 1_555
C7 O9 1_555 1_555
C11 C12 1_555 1_555
C15 O8 1_555 1_555

#END
