
#######################################################################
#
#                 Cambridge Crystallographic Data Centre
#                                CCDC 
#
#######################################################################
#
# If this CIF has been generated from an entry in the Cambridge 
# Structural Database, then it will include bibliographic, chemical, 
# crystal, experimental, refinement or atomic coordinate data resulting 
# from the CCDC's data processing and validation procedures.
#
#######################################################################

data_ZAWCAD
_symmetry_cell_setting           monoclinic
_symmetry_space_group_name_H-M   'C 2/m'
_symmetry_Int_Tables_number      12
_space_group_name_Hall           '-C 2y'
loop_
_symmetry_equiv_pos_site_id
_symmetry_equiv_pos_as_xyz
1 x,y,z
2 -x,y,-z
3 1/2+x,1/2+y,z
4 1/2-x,1/2+y,-z
5 -x,-y,-z
6 x,-y,z
7 1/2-x,1/2-y,-z
8 1/2+x,1/2-y,z
_cell_length_a                   31.0881(9)
_cell_length_b                   14.1832(3)
_cell_length_c                   20.8347(5)
_cell_angle_alpha                90
_cell_angle_beta                 93.8691(15)
_cell_angle_gamma                90
_cell_volume                     9165.68
loop_
_atom_site_label
_atom_site_type_symbol
_atom_site_fract_x
_atom_site_fract_y
_atom_site_fract_z
U3 U 0.256466(8) 0.0000 0.156145(10)
U4 U 0.284640(8) 0.0000 0.334814(10)
S3 S 0.22485(4) 0.23791(9) 0.09507(5)
O5 O 0.31354(15) 0.0000 0.1537(2)
O6 O 0.19966(15) 0.0000 0.1580(2)
O7 O 0.33770(15) 0.0000 0.3082(2)
O8 O 0.23240(15) 0.0000 0.3640(2)
O15 O 0.25439(12) 0.1623(3) 0.11790(16)
O16 O 0.22801(14) 0.3159(4) 0.1393(2)
O17 O 0.18159(14) 0.2062(3) 0.0799(2)
O24 O 0.26288(10) 0.0947(2) 0.24808(14)
H6 H 0.2376 0.1142 0.2545
O25 O 0.25182(18) 0.0000 0.0401(2)
H7 H 0.2696 0.0000 0.0024
H8 H 0.2269 0.0000 0.0181
O26 O 0.29248(11) 0.1670(3) 0.36972(15)
H9 H 0.2725 0.2187 0.3581
H10 H 0.3120 0.2023 0.4013
O27 O 0.31740(17) 0.0000 0.4425(2)
H11 H 0.3112 0.0000 0.4863
H12 H 0.3476 0.0000 0.4507
C3 C 0.2479(3) 0.2830(5) 0.0259(3)
H21 H 0.2305 0.3356 0.0096
H22 H 0.2764 0.3073 0.0388
O15E O 0.25439(12) -0.1623(3) 0.11790(16)
O24E O 0.26288(10) -0.0947(2) 0.24808(14)
O26E O 0.29248(11) -0.1670(3) 0.36972(15)
C3F C 0.2521(3) 0.2170(5) -0.0259(3)
O41 O 0.4444(2) 0.0000 0.3470(4)
O42 O 0.5120(2) 0.0000 0.3344(3)
O43 O 0.4874(4) 0.0556(11) 0.4207(5)
N15 N 0.4814(3) 0.0000 0.3663(4)
O43E O 0.4874(4) -0.0556(11) 0.4207(5)
O44 O 0.22905(17) 0.5000 0.4512(2)
H16 H 0.2460 0.4541 0.4571
H16E H 0.2460 0.5459 0.4571
O47 O 0.17211(19) 0.0000 0.0030(3)
O48 O 0.0606(3) 0.2889(7) 0.4609(4)
U1 U 0.156473(7) 0.5000 0.245690(10)
U2 U 0.126088(8) 0.5000 0.067480(11)
Er1 Er 0.090090(10) 0.0000 0.546588(13)
Er2 Er 0.01423(2) 0.0000 0.97679(3)
S1 S 0.18751(4) 0.26916(9) 0.31533(5)
S2 S 0.17053(4) 0.17083(10) 0.50931(5)
O1 O 0.09948(14) 0.5000 0.2485(2)
O2 O 0.21352(15) 0.5000 0.2455(2)
O3 O 0.07492(16) 0.5000 0.0992(2)
O4 O 0.17810(18) 0.5000 0.0367(2)
O9 O 0.15861(11) 0.3372(3) 0.28031(15)
O10 O 0.18710(11) 0.1790(3) 0.28260(15)
O11 O 0.23069(11) 0.3061(3) 0.33062(16)
O12 O 0.13511(12) 0.1030(3) 0.49481(15)
O13 O 0.20551(12) 0.1329(3) 0.55121(16)
O14 O 0.15484(12) 0.2612(3) 0.53196(16)
O18 O 0.14964(11) 0.4064(3) 0.15323(14)
H1 H 0.1713 0.3788 0.1455
O19 O 0.16074(16) 0.5000 0.3624(2)
H2 H 0.1852 0.5000 0.3898
H3 H 0.1407 0.5000 0.3854
O20 O 0.11732(13) 0.3322(3) 0.03341(17)
H4 H 0.1325 0.2810 0.0443
H5 H 0.0993 0.3075 0.0005
O21 O 0.0959(2) 0.5000 -0.0424(3)
O22 O 0.0438(2) 0.5000 -0.1162(3)
O28 O 0.11822(12) 0.1031(3) 0.62498(15)
O29 O 0.15116(14) 0.1309(4) 0.90737(18)
O30 O 0.01966(14) 0.2281(3) 0.63880(19)
O31 O 0.06439(15) 0.2582(5) 0.9303(2)
O32 O -0.07385(14) 0.1239(3) 0.65647(17)
O33 O -0.02880(16) 0.1164(5) 0.9407(2)
O34 O 0.06200(16) 0.0000 0.4387(2)
H13 H 0.0475 0.0489 0.4258
O35 O 0.0384(2) 0.0000 0.6284(3)
O36 O 0.04359(13) 0.1297(3) 0.53206(18)
H14 H 0.0499 0.1700 0.5611
H15 H 0.0513 0.1584 0.4956
O37 O 0.0101(4) 0.0000 0.8583(5)
O38 O 0.0753(5) 0.0000 0.8278(8)
O40 O 0.0679(4) 0.0881(8) 0.9523(4)
N1 N 0.0577(3) 0.5000 -0.0610(4)
N2 N 0.17668(14) 0.0848(5) 0.69764(19)
N3 N 0.13550(16) 0.2121(4) 0.7041(2)
N4 N 0.15209(16) 0.2277(5) 0.8192(2)
N5 N 0.18297(14) 0.0850(5) 0.81526(19)
N6 N 0.06798(19) 0.2904(4) 0.7175(2)
N7 N -0.00164(19) 0.3006(4) 0.7305(2)
N8 N 0.01617(18) 0.2996(4) 0.8464(2)
N9 N 0.08562(19) 0.3109(4) 0.8325(2)
N10 N -0.06958(18) 0.2222(5) 0.7442(2)
N11 N -0.10197(15) 0.0852(5) 0.7525(2)
N12 N -0.08726(16) 0.0855(5) 0.8695(2)
N13 N -0.05035(17) 0.2156(6) 0.8600(3)
N14 N 0.0372(5) 0.0000 0.8135(6)
C1 C 0.16325(15) 0.2520(4) 0.3898(2)
H17 H 0.1581 0.3126 0.4095
H18 H 0.1358 0.2203 0.3821
C2 C 0.19323(15) 0.1925(4) 0.4351(2)
H19 H 0.2205 0.2251 0.4430
H20 H 0.1989 0.1328 0.4145
C4 C 0.14142(17) 0.1306(5) 0.6713(2)
C5 C 0.19434(18) 0.1314(6) 0.7562(2)
H23 H 0.2255 0.1419 0.7556
C6 C 0.1689(2) 0.2252(6) 0.7569(3)
H24 H 0.1874 0.2797 0.7496
C7 C 0.16099(18) 0.1465(6) 0.8518(3)
C8 C 0.1061(2) 0.2846(5) 0.6808(3)
H25 H 0.0972 0.2722 0.6361
H26 H 0.1208 0.3449 0.6829
C9 C 0.1316(2) 0.3077(6) 0.8471(3)
H27 H 0.1443 0.3650 0.8314
H28 H 0.1374 0.3060 0.8934
C10 C 0.0278(2) 0.2679(4) 0.6907(3)
C11 C 0.0660(3) 0.3497(4) 0.7739(3)
H29 H 0.0765 0.4135 0.7660
C12 C 0.0176(3) 0.3497(4) 0.7856(3)
H30 H 0.0063 0.4139 0.7885
C13 C 0.0567(2) 0.2870(5) 0.8748(3)
C14 C -0.0482(2) 0.2971(6) 0.7149(3)
H31 H -0.0607 0.3562 0.7279
H32 H -0.0534 0.2917 0.6686
C15 C -0.0223(2) 0.2944(7) 0.8815(3)
H33 H -0.0382 0.3530 0.8758
H34 H -0.0141 0.2872 0.9269
C16 C -0.08067(18) 0.1402(6) 0.7128(3)
C17 C -0.0845(2) 0.2248(7) 0.8089(3)
H35 H -0.1030 0.2795 0.8154
C18 C -0.1090(2) 0.1320(7) 0.8133(3)
H36 H -0.1397 0.1422 0.8187
C19 C -0.0530(2) 0.1377(9) 0.8933(3)
C20 C -0.1243(3) 0.0000 0.7310(4)
H37 H -0.1529 0.0000 0.7470
H38 H -0.1277 0.0000 0.6844
C21 C -0.1021(4) 0.0000 0.8982(4)
H39 H -0.0925 0.0000 0.9435
H40 H -0.1333 0.0000 0.8952
C22 C 0.1938(2) 0.0000 0.6718(3)
H41 H 0.2248 0.0000 0.6803
H42 H 0.1878 0.0000 0.6256
C23 C 0.2031(2) 0.0000 0.8397(3)
H43 H 0.2027 0.0000 0.8862
H44 H 0.2330 0.0000 0.8291
Er2A Er -0.01423(2) 0.0000 1.02321(3)
O9E O 0.15861(11) 0.6628(3) 0.28031(15)
O12E O 0.13511(12) -0.1030(3) 0.49481(15)
O18E O 0.14964(11) 0.5936(3) 0.15323(14)
O20E O 0.11732(13) 0.6678(3) 0.03341(17)
O28E O 0.11822(12) -0.1031(3) 0.62498(15)
O33A O 0.02880(16) 0.1164(5) 1.0593(2)
O33D O 0.02880(16) -0.1164(5) 1.0593(2)
O33E O -0.02880(16) -0.1164(5) 0.9407(2)
H13E H 0.0475 -0.0489 0.4258
O36E O 0.04359(13) -0.1297(3) 0.53206(18)
O40E O 0.0679(4) -0.0881(8) 0.9523(4)
N2E N 0.17668(14) -0.0848(5) 0.69764(19)
N5E N 0.18297(14) -0.0850(5) 0.81526(19)
N11E N -0.10197(15) -0.0852(5) 0.7525(2)
N12E N -0.08726(16) -0.0855(5) 0.8695(2)
O23? O 0.0380(3) 0.4302(8) -0.0246(4)
O39? O 0.0256(6) 0.0463(13) 0.7570(7)
O45? O 0.1018(3) 0.4480(8) 0.5359(4)
O46? O 0.0874(3) 0.4645(7) 0.4149(4)
loop_
_geom_bond_atom_site_label_1
_geom_bond_atom_site_label_2
_geom_bond_site_symmetry_1
_geom_bond_site_symmetry_2
U1 O1 1_555 1_555
U2 O3 1_555 1_555
U3 O5 1_555 1_555
U4 O7 1_555 1_555
Er1 O12 1_555 1_555
Er2 O33 1_555 1_555
S1 O9 1_555 1_555
S2 O12 1_555 1_555
S3 O15 1_555 1_555
O2 U1 1_555 1_555
O4 U2 1_555 1_555
O6 U3 1_555 1_555
O8 U4 1_555 1_555
O9 U1 1_555 1_555
O10 S1 1_555 1_555
O11 S1 1_555 1_555
O13 S2 1_555 1_555
O14 S2 1_555 1_555
O15 U3 1_555 1_555
O16 S3 1_555 1_555
O17 S3 1_555 1_555
O18 U1 1_555 1_555
H1 O18 1_555 1_555
O19 U1 1_555 1_555
H2 O19 1_555 1_555
H3 O19 1_555 1_555
O20 U2 1_555 1_555
H4 O20 1_555 1_555
H5 O20 1_555 1_555
O21 U2 1_555 1_555
O22 N1 1_555 1_555
O24 U3 1_555 1_555
H6 O24 1_555 1_555
O25 U3 1_555 1_555
H7 O25 1_555 1_555
H8 O25 1_555 1_555
O26 U4 1_555 1_555
H9 O26 1_555 1_555
H10 O26 1_555 1_555
O27 U4 1_555 1_555
H11 O27 1_555 1_555
H12 O27 1_555 1_555
O28 Er1 1_555 1_555
O29 C7 1_555 1_555
O30 C10 1_555 1_555
O31 C13 1_555 1_555
O32 C16 1_555 1_555
O33 C19 1_555 1_555
O34 Er1 1_555 1_555
H13 O34 1_555 1_555
O35 Er1 1_555 1_555
O36 Er1 1_555 1_555
H14 O36 1_555 1_555
H15 O36 1_555 1_555
O37 Er2 1_555 1_555
O38 N14 1_555 1_555
O40 Er2 1_555 1_555
O41 N15 1_555 1_555
O42 N15 1_555 1_555
O43 N15 1_555 1_555
O44 H16 1_555 1_555
N1 O21 1_555 1_555
N2 C4 1_555 1_555
N3 C4 1_555 1_555
N4 C6 1_555 1_555
N5 C5 1_555 1_555
N6 C8 1_555 1_555
N7 C10 1_555 1_555
N8 C12 1_555 1_555
N9 C9 1_555 1_555
N10 C14 1_555 1_555
N11 C16 1_555 1_555
N12 C18 1_555 1_555
N13 C15 1_555 1_555
N14 O37 1_555 1_555
N15 O43E 1_555 1_555
C1 S1 1_555 1_555
H17 C1 1_555 1_555
H18 C1 1_555 1_555
C2 S2 1_555 1_555
H19 C2 1_555 1_555
H20 C2 1_555 1_555
C3 S3 1_555 1_555
H21 C3 1_555 1_555
H22 C3 1_555 1_555
C4 O28 1_555 1_555
C5 N2 1_555 1_555
H23 C5 1_555 1_555
C6 N3 1_555 1_555
H24 C6 1_555 1_555
C7 N4 1_555 1_555
C8 N3 1_555 1_555
H25 C8 1_555 1_555
H26 C8 1_555 1_555
C9 N4 1_555 1_555
H27 C9 1_555 1_555
H28 C9 1_555 1_555
C10 N6 1_555 1_555
C11 N6 1_555 1_555
H29 C11 1_555 1_555
C12 N7 1_555 1_555
H30 C12 1_555 1_555
C13 N8 1_555 1_555
C14 N7 1_555 1_555
H31 C14 1_555 1_555
H32 C14 1_555 1_555
C15 N8 1_555 1_555
H33 C15 1_555 1_555
H34 C15 1_555 1_555
C16 N10 1_555 1_555
C17 N10 1_555 1_555
H35 C17 1_555 1_555
C18 N11 1_555 1_555
H36 C18 1_555 1_555
C19 N12 1_555 1_555
C20 N11 1_555 1_555
H37 C20 1_555 1_555
H38 C20 1_555 1_555
C21 N12 1_555 1_555
H39 C21 1_555 1_555
H40 C21 1_555 1_555
C22 N2 1_555 1_555
H41 C22 1_555 1_555
H42 C22 1_555 1_555
C23 N5 1_555 1_555
H43 C23 1_555 1_555
H44 C23 1_555 1_555
Er2A Er2 1_555 1_555
O9E U1 1_555 1_555
O12E Er1 1_555 1_555
O15E U3 1_555 1_555
O18E U1 1_555 1_555
O20E U2 1_555 1_555
O24E U3 1_555 1_555
O26E U4 1_555 1_555
O28E Er1 1_555 1_555
O33A Er2 1_555 1_555
O33D Er2 1_555 1_555
O33E Er2 1_555 1_555
H13E O34 1_555 1_555
O36E Er1 1_555 1_555
O40E Er2 1_555 1_555
O43E O43 1_555 1_555
H16E O44 1_555 1_555
N2E C22 1_555 1_555
N5E C23 1_555 1_555
N11E C20 1_555 1_555
N12E C21 1_555 1_555
C3F C3 1_555 1_555
U2 O18 1_555 1_555
U2 O18E 1_555 1_555
U4 O24 1_555 1_555
U4 O24E 1_555 1_555
O33 Er2A 1_555 1_555
N5 C7 1_555 1_555
N9 C11 1_555 1_555
N9 C13 1_555 1_555
N13 C17 1_555 1_555
N13 C19 1_555 1_555
C1 C2 1_555 1_555
C5 C6 1_555 1_555
C11 C12 1_555 1_555
C17 C18 1_555 1_555
Er2A O33A 1_555 1_555
Er2A O33D 1_555 1_555
Er2A O33E 1_555 1_555

#END
