
#######################################################################
#
#                 Cambridge Crystallographic Data Centre
#                                CCDC 
#
#######################################################################
#
# If this CIF has been generated from an entry in the Cambridge 
# Structural Database, then it will include bibliographic, chemical, 
# crystal, experimental, refinement or atomic coordinate data resulting 
# from the CCDC's data processing and validation procedures.
#
#######################################################################

data_ZAWKUF
_symmetry_cell_setting           monoclinic
_symmetry_space_group_name_H-M   'P 21/c'
_symmetry_Int_Tables_number      14
_space_group_name_Hall           '-P 2ybc'
loop_
_symmetry_equiv_pos_site_id
_symmetry_equiv_pos_as_xyz
1 x,y,z
2 -x,1/2+y,1/2-z
3 -x,-y,-z
4 x,1/2-y,1/2+z
_cell_length_a                   20.1692(7)
_cell_length_b                   6.8605(2)
_cell_length_c                   28.4044(8)
_cell_angle_alpha                90
_cell_angle_beta                 110.456(2)
_cell_angle_gamma                90
_cell_volume                     3682.5
loop_
_atom_site_label
_atom_site_type_symbol
_atom_site_fract_x
_atom_site_fract_y
_atom_site_fract_z
Ag1 Ag 0.485948(14) 0.29479(4) 0.263893(9)
N1 N 0.50168(14) 0.3274(4) 0.34445(10)
N2 N 0.46971(15) 0.2812(4) 0.41029(10)
N3 N 0.37707(15) 0.1513(4) 0.28103(10)
N4 N 0.44983(14) -0.2338(4) 0.28738(10)
N5 N 0.59113(15) -0.1140(4) 0.31915(10)
N6 N 0.59913(14) -0.1134(4) 0.39893(10)
C1 C 0.55544(18) 0.3857(5) 0.38650(13)
H1 H 0.5994 0.4374 0.3870
C2 C 0.53660(19) 0.3584(5) 0.42803(13)
H2 H 0.5641 0.3871 0.4620
C3 C 0.4302(2) 0.2199(5) 0.44240(13)
H3 H 0.3798 0.2483 0.4255
H4 H 0.4478 0.2908 0.4743
H5 H 0.4366 0.0796 0.4489
C4 C 0.45023(17) 0.2649(5) 0.35982(11)
C5 C 0.38428(17) 0.1825(5) 0.32674(12)
H6 H 0.3472 0.1525 0.3389
C6 C 0.31282(18) 0.0517(5) 0.24935(13)
H7 H 0.2865 0.1369 0.2208
H8 H 0.2820 0.0250 0.2691
C7 C 0.33125(18) -0.1396(5) 0.22940(12)
H9 H 0.3587 -0.1098 0.2074
H10 H 0.2868 -0.2039 0.2085
C8 C 0.37373(17) -0.2824(5) 0.27003(12)
H11 H 0.3568 -0.2769 0.2988
H12 H 0.3665 -0.4167 0.2564
C9 C 0.48265(17) -0.2024(5) 0.33386(12)
H13 H 0.4590 -0.2158 0.3573
C10 C 0.55649(17) -0.1462(5) 0.35067(12)
C11 C 0.65801(18) -0.0602(5) 0.34870(13)
H14 H 0.6950 -0.0283 0.3366
C12 C 0.66389(18) -0.0591(5) 0.39800(13)
H15 H 0.7047 -0.0271 0.4260
C13 C 0.58186(19) -0.1366(5) 0.44432(12)
H16 H 0.5343 -0.1921 0.4356
H17 H 0.5833 -0.0092 0.4603
H18 H 0.6163 -0.2240 0.4677
Ag1A Ag 0.514052(14) -0.20521(4) 0.236107(9)
N4A N 0.55017(14) 0.2662(4) 0.21262(10)
N5A N 0.40887(15) 0.3860(4) 0.18085(10)
S1 S 0.33771(5) 0.70028(14) 0.40638(3)
F1 F 0.30539(12) 0.8121(4) 0.48363(9)
F2 F 0.31621(11) 0.5012(3) 0.47857(8)
F3 F 0.22374(11) 0.6476(4) 0.42934(8)
O1 O 0.41137(13) 0.7081(4) 0.43837(10)
O2 O 0.31776(14) 0.5308(4) 0.37463(9)
O3 O 0.30844(14) 0.8808(4) 0.38227(10)
C14 C 0.29320(19) 0.6636(6) 0.45131(14)
Ag2 Ag 0.016602(14) 0.22436(4) 0.244706(10)
N7 N 0.08848(14) 0.1596(4) 0.32557(10)
N8 N 0.09822(15) 0.1636(4) 0.40545(10)
N9 N -0.05341(14) 0.2646(4) 0.29416(10)
N10 N -0.12294(15) -0.1295(4) 0.28018(10)
N11 N 0.00801(15) -0.2950(4) 0.33586(10)
N12 N -0.01145(16) -0.2549(4) 0.40651(10)
C15 C 0.15666(19) 0.1161(6) 0.35436(14)
H19 H 0.1936 0.0883 0.3418
C16 C 0.16365(19) 0.1186(6) 0.40384(14)
H20 H 0.2056 0.0939 0.4317
C17 C 0.0813(2) 0.1875(5) 0.45116(13)
H21 H 0.1022 0.3092 0.4679
H22 H 0.1007 0.0774 0.4738
H23 H 0.0299 0.1919 0.4424
C18 C 0.05413(17) 0.1888(5) 0.35716(12)
C19 C -0.02056(18) 0.2385(5) 0.34069(12)
H24 H -0.0442 0.2511 0.3642
C20 C -0.12942(17) 0.3096(5) 0.27609(13)
H25 H -0.1369 0.4450 0.2632
H26 H -0.1471 0.3003 0.3044
C21 C -0.17096(18) 0.1705(5) 0.23461(13)
H27 H -0.1435 0.1473 0.2123
H28 H -0.2159 0.2345 0.2143
C22 C -0.18836(17) -0.0270(5) 0.25271(13)
H29 H -0.2164 -0.0069 0.2748
H30 H -0.2170 -0.1060 0.2235
C23 C -0.10863(18) -0.1623(5) 0.32675(13)
H31 H -0.1423 -0.1349 0.3424
C24 C -0.03976(18) -0.2424(5) 0.35554(12)
C25 C 0.06840(19) -0.3426(5) 0.37512(13)
H32 H 0.1114 -0.3869 0.3721
C26 C 0.0568(2) -0.3161(5) 0.41865(14)
H33 H 0.0900 -0.3364 0.4515
C27 C -0.0458(2) -0.2130(6) 0.44299(13)
H34 H -0.0885 -0.1354 0.4269
H35 H -0.0132 -0.1400 0.4713
H36 H -0.0587 -0.3357 0.4552
Ag2A Ag -0.016602(14) -0.27564(4) 0.255294(10)
N10A N 0.12294(15) 0.3705(4) 0.21982(10)
N11A N -0.00801(15) 0.2050(4) 0.16414(10)
S2 S 0.15884(5) -0.25541(13) 0.07269(3)
F4 F 0.19823(12) 0.0789(3) 0.04642(9)
F5 F 0.28092(11) -0.0784(3) 0.10226(9)
F6 F 0.20121(12) 0.0682(3) 0.12296(9)
O4 O 0.17765(14) -0.3457(4) 0.03327(9)
O5 O 0.18226(14) -0.3578(4) 0.11976(9)
O6 O 0.08755(13) -0.1827(4) 0.05706(10)
C28 C 0.21226(19) -0.0360(5) 0.08654(14)
loop_
_geom_bond_atom_site_label_1
_geom_bond_atom_site_label_2
_geom_bond_site_symmetry_1
_geom_bond_site_symmetry_2
Ag1 N1 1_555 1_555
N1 C1 1_555 1_555
N2 C2 1_555 1_555
N3 Ag1 1_555 1_555
N4 C8 1_555 1_555
N5 C10 1_555 1_555
N6 C10 1_555 1_555
C1 H1 1_555 1_555
C2 C1 1_555 1_555
H2 C2 1_555 1_555
C3 N2 1_555 1_555
H3 C3 1_555 1_555
H4 C3 1_555 1_555
H5 C3 1_555 1_555
C4 N1 1_555 1_555
C5 N3 1_555 1_555
H6 C5 1_555 1_555
C6 N3 1_555 1_555
H7 C6 1_555 1_555
H8 C6 1_555 1_555
C7 C6 1_555 1_555
H9 C7 1_555 1_555
H10 C7 1_555 1_555
C8 C7 1_555 1_555
H11 C8 1_555 1_555
H12 C8 1_555 1_555
C9 N4 1_555 1_555
H13 C9 1_555 1_555
C10 C9 1_555 1_555
C11 N5 1_555 1_555
H14 C11 1_555 1_555
C12 N6 1_555 1_555
H15 C12 1_555 1_555
C13 N6 1_555 1_555
H16 C13 1_555 1_555
H17 C13 1_555 1_555
H18 C13 1_555 1_555
S1 O1 1_555 1_555
F1 C14 1_555 1_555
F2 C14 1_555 1_555
F3 C14 1_555 1_555
O2 S1 1_555 1_555
O3 S1 1_555 1_555
C14 S1 1_555 1_555
Ag2 N7 1_555 1_555
N7 C15 1_555 1_555
N8 C16 1_555 1_555
N9 Ag2 1_555 1_555
N10 C22 1_555 1_555
N11 C24 1_555 1_555
N12 C24 1_555 1_555
C15 H19 1_555 1_555
C16 C15 1_555 1_555
H20 C16 1_555 1_555
C17 N8 1_555 1_555
H21 C17 1_555 1_555
H22 C17 1_555 1_555
H23 C17 1_555 1_555
C18 N7 1_555 1_555
C19 N9 1_555 1_555
H24 C19 1_555 1_555
C20 N9 1_555 1_555
H25 C20 1_555 1_555
H26 C20 1_555 1_555
C21 C20 1_555 1_555
H27 C21 1_555 1_555
H28 C21 1_555 1_555
C22 C21 1_555 1_555
H29 C22 1_555 1_555
H30 C22 1_555 1_555
C23 N10 1_555 1_555
H31 C23 1_555 1_555
C24 C23 1_555 1_555
C25 N11 1_555 1_555
H32 C25 1_555 1_555
C26 N12 1_555 1_555
H33 C26 1_555 1_555
C27 N12 1_555 1_555
H34 C27 1_555 1_555
H35 C27 1_555 1_555
H36 C27 1_555 1_555
S2 O4 1_555 1_555
F4 C28 1_555 1_555
F5 C28 1_555 1_555
F6 C28 1_555 1_555
O5 S2 1_555 1_555
O6 S2 1_555 1_555
C28 S2 1_555 1_555
Ag1A N4 1_555 1_555
N4A Ag1 1_555 1_555
N5A Ag1 1_555 1_555
Ag2A N10 1_555 1_555
N10A Ag2 1_555 1_555
N11A Ag2 1_555 1_555
N2 C4 1_555 1_555
N5 Ag1A 1_555 1_555
C4 C5 1_555 1_555
C11 C12 1_555 1_555
N8 C18 1_555 1_555
N11 Ag2A 1_555 1_555
C18 C19 1_555 1_555
C25 C26 1_555 1_555

#END
