
#######################################################################
#
#                 Cambridge Crystallographic Data Centre
#                                CCDC 
#
#######################################################################
#
# If this CIF has been generated from an entry in the Cambridge 
# Structural Database, then it will include bibliographic, chemical, 
# crystal, experimental, refinement or atomic coordinate data resulting 
# from the CCDC's data processing and validation procedures.
#
#######################################################################

data_ZAWLOA
_symmetry_cell_setting           monoclinic
_symmetry_space_group_name_H-M   'C 2/c'
_symmetry_Int_Tables_number      15
_space_group_name_Hall           '-C 2yn'
loop_
_symmetry_equiv_pos_site_id
_symmetry_equiv_pos_as_xyz
1 x,y,z
2 -x,y,1/2-z
3 1/2+x,1/2+y,z
4 1/2-x,1/2+y,1/2-z
5 -x,-y,-z
6 x,-y,1/2+z
7 1/2-x,1/2-y,-z
8 1/2+x,1/2-y,1/2+z
_cell_length_a                   28.199(6)
_cell_length_b                   10.371(2)
_cell_length_c                   32.295(7)
_cell_angle_alpha                90
_cell_angle_beta                 103.51(3)
_cell_angle_gamma                90
_cell_volume                     9183.39
loop_
_atom_site_label
_atom_site_type_symbol
_atom_site_fract_x
_atom_site_fract_y
_atom_site_fract_z
O1 O 0.71960(8) 0.4882(2) 0.52508(7)
H31 H 0.7320 0.5594 0.5341
C49 C 0.74082(12) 0.4435(3) 0.49256(10)
H32 H 0.7265 0.4892 0.4660
H33 H 0.7347 0.3508 0.4885
H34 H 0.7760 0.4593 0.5005
O2 O 0.8790(6) 0.9283(8) 0.6290(3)
Co1 Co 0.884909(9) 0.40887(2) 0.636923(7)
N1 N 0.87993(6) 0.34491(16) 0.57129(5)
N2 N 0.92743(6) 0.29072(16) 0.43376(5)
N3 N 1.04854(6) 0.48799(16) 0.36442(5)
C1 C 0.87567(7) 0.22003(19) 0.56043(6)
H1 H 0.8704 0.1596 0.5810
C2 C 0.87856(7) 0.17431(19) 0.52082(6)
H2 H 0.8737 0.0854 0.5141
C3 C 0.88864(7) 0.26044(19) 0.49095(6)
C4 C 0.89297(7) 0.39014(19) 0.50201(6)
H3 H 0.8997 0.4522 0.4825
C5 C 0.88743(7) 0.42817(19) 0.54164(6)
H4 H 0.8890 0.5176 0.5482
C6 C 0.89577(7) 0.21898(18) 0.44876(6)
C7 C 0.87035(7) 0.11591(19) 0.42645(6)
H5 H 0.8493 0.0650 0.4389
C8 C 0.87608(7) 0.08808(18) 0.38557(6)
C9 C 0.91001(7) 0.1619(2) 0.37045(6)
H6 H 0.9156 0.1457 0.3430
C10 C 0.93552(7) 0.25912(19) 0.39590(6)
C11 C 1.01895(7) 0.53354(19) 0.38807(6)
H7 H 1.0234 0.6199 0.3981
C12 C 0.98244(7) 0.46176(19) 0.39861(6)
H8 H 0.9635 0.4969 0.4166
C13 C 0.97350(7) 0.33755(19) 0.38267(6)
C14 C 1.00227(8) 0.2920(2) 0.35635(7)
H9 H 0.9965 0.2090 0.3437
C15 C 1.03954(8) 0.3692(2) 0.34868(7)
H10 H 1.0596 0.3358 0.3314
C16 C 0.84624(7) -0.01205(18) 0.35861(6)
C17 C 0.80471(8) -0.0644(2) 0.36888(7)
H11 H 0.7960 -0.0375 0.3942
C18 C 0.77617(8) -0.1545(2) 0.34287(7)
H12 H 0.7484 -0.1896 0.3507
C19 C 0.78785(7) -0.19436(19) 0.30522(7)
C20 C 0.82978(7) -0.14453(19) 0.29512(6)
H13 H 0.8387 -0.1722 0.2699
C21 C 0.85845(7) -0.05536(19) 0.32139(6)
H14 H 0.8869 -0.0229 0.3141
C22 C 0.75764(8) -0.2833(2) 0.27676(7)
C23 C 0.73327(10) -0.3524(3) 0.25150(9)
H15 H 0.7136 -0.4081 0.2311
N4 N 0.88733(6) 0.46505(16) 0.70218(5)
N5 N 0.82014(6) 0.55980(17) 0.82895(5)
N6 N 0.68135(6) 0.80179(17) 0.86326(5)
C24 C 0.91864(7) 0.4162(2) 0.73600(6)
H16 H 0.9474 0.3757 0.7318
C25 C 0.91150(7) 0.4214(2) 0.77714(6)
H17 H 0.9349 0.3852 0.8002
C26 C 0.86985(7) 0.47979(19) 0.78415(6)
C27 C 0.83862(8) 0.5368(2) 0.74934(7)
H18 H 0.8105 0.5821 0.7529
C28 C 0.84852(8) 0.5274(2) 0.70955(7)
H19 H 0.8267 0.5672 0.6862
C29 C 0.85639(7) 0.47908(19) 0.82602(6)
C30 C 0.87788(7) 0.39588(18) 0.85881(6)
H20 H 0.9030 0.3389 0.8553
C31 C 0.86248(7) 0.39618(18) 0.89683(6)
C32 C 0.82522(7) 0.4825(2) 0.89978(6)
H21 H 0.8138 0.4875 0.9252
C33 C 0.80518(7) 0.5606(2) 0.86532(6)
C34 C 0.71825(7) 0.7961(2) 0.89781(6)
H22 H 0.7164 0.8475 0.9217
C35 C 0.75892(7) 0.7193(2) 0.90054(6)
H23 H 0.7837 0.7162 0.9261
C36 C 0.76323(7) 0.6468(2) 0.86548(6)
C37 C 0.72599(8) 0.6566(2) 0.82903(7)
H24 H 0.7280 0.6113 0.8039
C38 C 0.68600(8) 0.7328(2) 0.82947(7)
H25 H 0.6604 0.7364 0.8044
C39 C 0.88493(7) 0.31120(18) 0.93303(6)
C40 C 0.86102(8) 0.2840(2) 0.96533(7)
H26 H 0.8288 0.3152 0.9630
C41 C 0.88344(8) 0.2123(2) 1.00059(7)
H27 H 0.8665 0.1948 1.0222
C42 C 0.93058(8) 0.1657(2) 1.00477(7)
C43 C 0.95413(8) 0.1884(2) 0.97198(8)
H28 H 0.9860 0.1551 0.9740
C44 C 0.93132(8) 0.2590(2) 0.93665(7)
H29 H 0.9476 0.2723 0.9143
C45 C 0.95425(9) 0.0939(2) 1.04188(8)
C46 C 0.97312(11) 0.0343(3) 1.07245(9)
H30 H 0.9883 -0.0137 1.0970
N7 N 0.84361(6) 0.56839(17) 0.61241(5)
C47 C 0.81801(8) 0.6406(2) 0.59107(7)
S1 S 0.78178(3) 0.74321(8) 0.56059(3)
N8 N 0.92834(6) 0.24766(17) 0.65815(5)
C48 C 0.96577(7) 0.19749(19) 0.66478(6)
S2 S 1.01957(2) 0.13083(7) 0.67292(2)
Co1D Co 1.115091(9) 0.59113(2) 0.363077(7)
Co1C Co 0.615091(9) 0.90887(2) 0.863077(7)
N3D N 0.95146(6) 0.51201(16) 0.63558(5)
N6C N 0.81865(6) 0.30179(17) 0.63674(5)
Cl1? Cl 0.93300(15) 0.7848(2) 0.75320(7)
Cl2? Cl 0.86047(10) 0.8857(2) 0.66064(7)
C50? C 0.9350(3) 0.9271(6) 0.7258(2)
H35? H 0.9521 0.9932 0.7460
H36? H 0.9541 0.9130 0.7041
C51? C 0.8887(3) 0.9736(7) 0.7057(2)
H37? H 0.8918 1.0645 0.6973
H38? H 0.8676 0.9720 0.7263
O3? O 0.8370(4) 0.8828(9) 0.6951(5)
O4? O 0.9245(8) 0.8291(10) 0.7461(5)
loop_
_geom_bond_atom_site_label_1
_geom_bond_atom_site_label_2
_geom_bond_site_symmetry_1
_geom_bond_site_symmetry_2
Co1 N1 1_555 1_555
N1 C1 1_555 1_555
N2 C6 1_555 1_555
N3 C11 1_555 1_555
C1 H1 1_555 1_555
C2 C1 1_555 1_555
H2 C2 1_555 1_555
C3 C2 1_555 1_555
C4 C3 1_555 1_555
H3 C4 1_555 1_555
C5 N1 1_555 1_555
H4 C5 1_555 1_555
C6 C3 1_555 1_555
C7 C6 1_555 1_555
H5 C7 1_555 1_555
C8 C7 1_555 1_555
C9 C8 1_555 1_555
H6 C9 1_555 1_555
C10 N2 1_555 1_555
C11 H7 1_555 1_555
C12 C11 1_555 1_555
H8 C12 1_555 1_555
C13 C10 1_555 1_555
C14 C13 1_555 1_555
H9 C14 1_555 1_555
C15 N3 1_555 1_555
H10 C15 1_555 1_555
C16 C8 1_555 1_555
C17 C16 1_555 1_555
H11 C17 1_555 1_555
C18 C17 1_555 1_555
H12 C18 1_555 1_555
C19 C18 1_555 1_555
C20 C19 1_555 1_555
H13 C20 1_555 1_555
C21 C16 1_555 1_555
H14 C21 1_555 1_555
C22 C19 1_555 1_555
C23 C22 1_555 1_555
H15 C23 1_555 1_555
N4 Co1 1_555 1_555
N5 C29 1_555 1_555
N6 C34 1_555 1_555
C24 N4 1_555 1_555
H16 C24 1_555 1_555
C25 C24 1_555 1_555
H17 C25 1_555 1_555
C26 C25 1_555 1_555
C27 C26 1_555 1_555
H18 C27 1_555 1_555
C28 N4 1_555 1_555
H19 C28 1_555 1_555
C29 C26 1_555 1_555
C30 C29 1_555 1_555
H20 C30 1_555 1_555
C31 C30 1_555 1_555
C32 C31 1_555 1_555
H21 C32 1_555 1_555
C33 N5 1_555 1_555
C34 H22 1_555 1_555
C35 C34 1_555 1_555
H23 C35 1_555 1_555
C36 C33 1_555 1_555
C37 C36 1_555 1_555
H24 C37 1_555 1_555
C38 N6 1_555 1_555
H25 C38 1_555 1_555
C39 C31 1_555 1_555
C40 C39 1_555 1_555
H26 C40 1_555 1_555
C41 C40 1_555 1_555
H27 C41 1_555 1_555
C42 C41 1_555 1_555
C43 C42 1_555 1_555
H28 C43 1_555 1_555
C44 C39 1_555 1_555
H29 C44 1_555 1_555
C45 C42 1_555 1_555
C46 C45 1_555 1_555
H30 C46 1_555 1_555
N7 Co1 1_555 1_555
C47 N7 1_555 1_555
S1 C47 1_555 1_555
N8 Co1 1_555 1_555
C48 N8 1_555 1_555
S2 C48 1_555 1_555
O1 H31 1_555 1_555
C49 O1 1_555 1_555
H32 C49 1_555 1_555
H33 C49 1_555 1_555
H34 C49 1_555 1_555
Co1D N3 1_555 1_555
Co1C N6 1_555 1_555
N3D Co1 1_555 1_555
N6C Co1 1_555 1_555
C4 C5 1_555 1_555
C9 C10 1_555 1_555
C12 C13 1_555 1_555
C14 C15 1_555 1_555
C20 C21 1_555 1_555
C27 C28 1_555 1_555
C32 C33 1_555 1_555
C35 C36 1_555 1_555
C37 C38 1_555 1_555
C43 C44 1_555 1_555

#END
