
#######################################################################
#
#                 Cambridge Crystallographic Data Centre
#                                CCDC 
#
#######################################################################
#
# If this CIF has been generated from an entry in the Cambridge 
# Structural Database, then it will include bibliographic, chemical, 
# crystal, experimental, refinement or atomic coordinate data resulting 
# from the CCDC's data processing and validation procedures.
#
#######################################################################

data_ZAWMOB
_symmetry_cell_setting           monoclinic
_symmetry_space_group_name_H-M   'P 21/c'
_symmetry_Int_Tables_number      14
_space_group_name_Hall           '-P 2ybc'
loop_
_symmetry_equiv_pos_site_id
_symmetry_equiv_pos_as_xyz
1 x,y,z
2 -x,1/2+y,1/2-z
3 -x,-y,-z
4 x,1/2-y,1/2+z
_cell_length_a                   7.5139(12)
_cell_length_b                   13.787(2)
_cell_length_c                   17.762(3)
_cell_angle_alpha                90
_cell_angle_beta                 90.739(3)
_cell_angle_gamma                90
_cell_volume                     1839.89
loop_
_atom_site_label
_atom_site_type_symbol
_atom_site_fract_x
_atom_site_fract_y
_atom_site_fract_z
Zn1 Zn 0.44802(4) -0.196149(17) 0.649812(14)
C1 C -0.1270(3) 0.05392(16) 0.62290(12)
C2 C -0.2193(3) 0.12638(17) 0.66117(12)
H1 H -0.1804 0.1457 0.7088
C3 C -0.3687(4) 0.16986(17) 0.62869(13)
H2 H -0.4304 0.2169 0.6553
C4 C -0.4273(3) 0.14353(16) 0.55647(12)
C5 C -0.3369(3) 0.07009(17) 0.51967(12)
H3 H -0.3754 0.0508 0.4720
C6 C -0.1917(3) 0.02518(17) 0.55200(13)
H4 H -0.1357 -0.0249 0.5265
C7 C 0.0356(3) 0.00766(16) 0.65225(12)
C8 C 0.1080(3) -0.07902(16) 0.63349(13)
H5 H 0.0554 -0.1244 0.6015
C9 C 0.2957(3) -0.00936(17) 0.70851(13)
H6 H 0.3963 0.0039 0.7378
C10 C -0.5857(3) 0.18767(15) 0.52075(13)
C11 C -0.7391(4) 0.21642(18) 0.55361(14)
H7 H -0.7642 0.2153 0.6047
C12 C -0.7639(3) 0.23661(18) 0.43198(13)
H8 H -0.8112 0.2522 0.3849
C13 C 0.7703(3) -0.01570(16) 0.82160(12)
H9 H 0.6593 -0.0028 0.8001
C14 C 0.8530(3) 0.05357(16) 0.86743(12)
C15 C 1.0170(3) 0.03214(17) 0.90031(13)
H10 H 1.0692 0.0769 0.9330
C16 C 1.1051(3) -0.05404(17) 0.88576(13)
C17 C 1.0211(3) -0.12206(17) 0.83941(13)
H11 H 1.0777 -0.1805 0.8293
C18 C 0.8533(3) -0.10373(15) 0.80799(12)
C19 C 0.7618(4) -0.17792(16) 0.75862(13)
C20 C 0.7674(3) 0.15133(17) 0.87853(13)
C21 C 1.2903(4) -0.0715(2) 0.91736(18)
H12 H 1.3341 -0.0131 0.9405
H13 H 1.3679 -0.0902 0.8774
H14 H 1.2864 -0.1223 0.9543
N1 N 0.2712(3) -0.08999(14) 0.66894(10)
N2 N 0.1563(3) 0.05031(14) 0.70074(11)
H15 H 0.1443 0.1057 0.7223
N3 N -0.6022(3) 0.20070(13) 0.44334(11)
N4 N -0.8501(3) 0.24755(16) 0.49643(11)
H16 H -0.9560 0.2700 0.5014
O1 O 0.6148(3) -0.15150(13) 0.72930(10)
O2 O 0.8334(3) -0.25833(12) 0.74860(10)
O3 O 0.8244(3) 0.20751(12) 0.92731(11)
O4 O 0.6377(3) 0.17163(13) 0.83384(10)
Zn1B Zn -0.44802(4) 0.196149(17) 0.350188(14)
Zn1A Zn 0.55198(4) 0.303851(17) 0.850188(14)
N3B N 0.6022(3) -0.20070(13) 0.55666(11)
O4A O 0.3623(3) -0.32837(13) 0.66616(10)
loop_
_geom_bond_atom_site_label_1
_geom_bond_atom_site_label_2
_geom_bond_site_symmetry_1
_geom_bond_site_symmetry_2
Zn1 N1 1_555 1_555
C1 C2 1_555 1_555
C2 H1 1_555 1_555
C3 C2 1_555 1_555
H2 C3 1_555 1_555
C4 C3 1_555 1_555
C5 C4 1_555 1_555
H3 C5 1_555 1_555
C6 C1 1_555 1_555
H4 C6 1_555 1_555
C7 C1 1_555 1_555
C8 C7 1_555 1_555
H5 C8 1_555 1_555
C9 H6 1_555 1_555
C10 C4 1_555 1_555
C11 C10 1_555 1_555
H7 C11 1_555 1_555
C12 H8 1_555 1_555
C13 H9 1_555 1_555
C14 C13 1_555 1_555
C15 C14 1_555 1_555
H10 C15 1_555 1_555
C16 C15 1_555 1_555
C17 C16 1_555 1_555
H11 C17 1_555 1_555
C18 C13 1_555 1_555
C19 C18 1_555 1_555
C20 C14 1_555 1_555
C21 C16 1_555 1_555
H12 C21 1_555 1_555
H13 C21 1_555 1_555
H14 C21 1_555 1_555
N1 C8 1_555 1_555
N2 C7 1_555 1_555
H15 N2 1_555 1_555
N3 C10 1_555 1_555
N4 C11 1_555 1_555
H16 N4 1_555 1_555
O1 Zn1 1_555 1_555
O2 C19 1_555 1_555
O3 C20 1_555 1_555
O4 C20 1_555 1_555
Zn1B N3 1_555 1_555
Zn1A O4 1_555 1_555
N3B Zn1 1_555 1_555
O4A Zn1 1_555 1_555
C5 C6 1_555 1_555
C9 N1 1_555 1_555
C9 N2 1_555 1_555
C12 N3 1_555 1_555
C12 N4 1_555 1_555
C17 C18 1_555 1_555
C19 O1 1_555 1_555

#END
