
#######################################################################
#
#                 Cambridge Crystallographic Data Centre
#                                CCDC 
#
#######################################################################
#
# If this CIF has been generated from an entry in the Cambridge 
# Structural Database, then it will include bibliographic, chemical, 
# crystal, experimental, refinement or atomic coordinate data resulting 
# from the CCDC's data processing and validation procedures.
#
#######################################################################

data_ZAWNAO
_symmetry_cell_setting           triclinic
_symmetry_space_group_name_H-M   'P -1'
_symmetry_Int_Tables_number      2
_space_group_name_Hall           '-P 1'
loop_
_symmetry_equiv_pos_site_id
_symmetry_equiv_pos_as_xyz
1 x,y,z
2 -x,-y,-z
_cell_length_a                   9.0774(12)
_cell_length_b                   10.1578(13)
_cell_length_c                   12.7217(16)
_cell_angle_alpha                98.865(2)
_cell_angle_beta                 94.336(2)
_cell_angle_gamma                104.228(2)
_cell_volume                     1115.54
loop_
_atom_site_label
_atom_site_type_symbol
_atom_site_fract_x
_atom_site_fract_y
_atom_site_fract_z
Co1 Co 0.5000 1.0000 0.5000
Co2 Co 0.74810(4) -0.04274(4) -0.26753(3)
C1 C 0.6256(3) 0.5899(3) 0.1878(2)
C2 C 0.4963(3) 0.4800(3) 0.1714(2)
H1 H 0.4149 0.4857 0.2106
C3 C 0.4861(3) 0.3629(3) 0.0986(2)
H2 H 0.3980 0.2903 0.0893
C4 C 0.6040(3) 0.3505(3) 0.0387(2)
C5 C 0.7345(3) 0.4605(3) 0.0551(2)
H3 H 0.8157 0.4546 0.0158
C6 C 0.7451(3) 0.5773(3) 0.1283(2)
H4 H 0.8337 0.6493 0.1383
C7 C 0.6353(3) 0.7142(3) 0.2664(2)
C8 C 0.5309(3) 0.7567(3) 0.3248(2)
H5 H 0.4294 0.7072 0.3220
C9 C 0.7369(3) 0.9166(3) 0.3670(2)
H6 H 0.8083 0.9987 0.3981
C10 C 0.5955(3) 0.2269(3) -0.0398(2)
C11 C 0.7041(3) 0.1837(3) -0.0925(2)
H7 H 0.8072 0.2308 -0.0837
C12 C 0.4956(3) 0.0300(3) -0.1479(2)
H8 H 0.4240 -0.0491 -0.1841
C13 C 0.7583(3) 1.4403(3) 0.3813(2)
C14 C 0.8557(3) 1.5693(3) 0.4226(2)
H9 H 0.8247 1.6290 0.4740
C15 C 0.9976(3) 1.6104(3) 0.3885(2)
C16 C 1.0426(3) 1.5204(3) 0.3121(2)
H10 H 1.1381 1.5479 0.2886
C17 C 0.9491(3) 1.3911(3) 0.2700(2)
C18 C 0.8070(3) 1.3534(3) 0.3056(2)
H11 H 0.7423 1.2668 0.2774
C19 C 0.6021(3) 1.4034(3) 0.4184(2)
H12 H 0.5407 1.4580 0.3893
H13 H 0.6131 1.4284 0.4959
C20 C 0.5169(3) 1.2516(3) 0.3866(2)
C21 C 1.1037(4) 1.7481(3) 0.4396(2)
H14 H 1.0531 1.7910 0.4945
H15 H 1.1940 1.7316 0.4754
C22 C 1.1550(3) 1.8488(3) 0.3674(2)
C23 C 0.9977(4) 1.2925(3) 0.1890(2)
H16 H 1.0737 1.3451 0.1512
H17 H 0.9099 1.2442 0.1370
C24 C 1.0632(3) 1.1869(3) 0.2330(2)
N1 N 0.7664(3) 0.8188(2) 0.29459(19)
H18 H 0.8526 0.8213 0.2701
N2 N 0.5959(3) 0.8825(2) 0.38831(19)
N3 N 0.4628(3) 0.1263(2) -0.07651(19)
H19 H 0.3740 0.1253 -0.0570
N4 N 0.6408(3) 0.0610(2) -0.16046(19)
O1 O 0.5676(2) 1.1676(2) 0.42847(18)
O3 O 0.4026(2) 1.2231(2) 0.31792(18)
O4 O 1.0799(2) 1.8462(2) 0.28069(16)
O5 O 1.2774(2) 1.94381(18) 0.39741(15)
O6 O 1.1155(2) 1.1081(2) 0.16480(17)
O7 O 1.0697(3) 1.1755(2) 0.32721(18)
Co1_2 Co 1.5000 2.0000 0.5000
Co1_3 Co -0.5000 0.0000 0.5000
Co2A Co 0.25190(4) 2.04274(4) 1.26753(3)
Co2A_2 Co 0.25190(4) 1.04274(4) 0.26753(3)
Co2A_3 Co 1.25190(4) 2.04274(4) 0.26753(3)
Co2A_4 Co 1.25190(4) 1.04274(4) 0.26753(3)
Co2_2 Co 0.74810(4) 0.95726(4) 0.73247(3)
Co2_3 Co -0.25190(4) -0.04274(4) 0.73247(3)
Co2_4 Co -0.25190(4) 0.95726(4) 0.73247(3)
C1A C 0.3744(3) 1.4101(3) 0.8122(2)
C2A C 0.5037(3) 1.5200(3) 0.8286(2)
H1A H 0.5851 1.5143 0.7894
C3A C 0.5139(3) 1.6371(3) 0.9014(2)
H2A H 0.6020 1.7097 0.9107
C4A C 0.3960(3) 1.6495(3) 0.9613(2)
C5A C 0.2655(3) 1.5395(3) 0.9449(2)
H3A H 0.1843 1.5454 0.9842
C6A C 0.2549(3) 1.4227(3) 0.8717(2)
H4A H 0.1663 1.3507 0.8617
C7A C 0.3647(3) 1.2858(3) 0.7336(2)
C8A C 0.4691(3) 1.2433(3) 0.6752(2)
H5A H 0.5706 1.2928 0.6780
C9A C 0.2631(3) 1.0834(3) 0.6330(2)
H6A H 0.1917 1.0013 0.6019
C10A C 0.4045(3) 1.7731(3) 1.0398(2)
C11A C 0.2959(3) 1.8163(3) 1.0925(2)
H7A H 0.1928 1.7692 1.0837
C12A C 0.5044(3) 1.9700(3) 1.1479(2)
H8A H 0.5760 2.0491 1.1841
C13A C 0.2417(3) 0.5597(3) 0.6187(2)
C14A C 0.1443(3) 0.4307(3) 0.5774(2)
H9A H 0.1753 0.3710 0.5260
C15A C 0.0024(3) 0.3896(3) 0.6115(2)
C16A C -0.0426(3) 0.4796(3) 0.6879(2)
H10A H -0.1381 0.4521 0.7114
C17A C 0.0509(3) 0.6089(3) 0.7300(2)
C18A C 0.1930(3) 0.6466(3) 0.6944(2)
H11A H 0.2577 0.7332 0.7226
C19A C 0.3979(3) 0.5966(3) 0.5816(2)
H12A H 0.4593 0.5420 0.6107
H13A H 0.3869 0.5716 0.5041
C20A C 0.4831(3) 0.7484(3) 0.6134(2)
C21A C -0.1037(4) 0.2519(3) 0.5604(2)
H14A H -0.0531 0.2090 0.5055
H15A H -0.1940 0.2684 0.5246
C22A C -0.1550(3) 0.1512(3) 0.6326(2)
C23A C 0.0023(4) 0.7075(3) 0.8110(2)
H16A H -0.0737 0.6549 0.8488
H17A H 0.0901 0.7558 0.8630
C24A C -0.0632(3) 0.8131(3) 0.7670(2)
N1A N 0.2336(3) 1.1812(2) 0.70541(19)
H18A H 0.1474 1.1787 0.7299
N2A N 0.4041(3) 1.1175(2) 0.61169(19)
N3A N 0.5372(3) 1.8737(2) 1.07651(19)
H19A H 0.6260 1.8747 1.0570
N4A N 0.3592(3) 1.9390(2) 1.16046(19)
O1A O 0.4324(2) 0.8324(2) 0.57153(18)
O3A O 0.5974(2) 0.7769(2) 0.68208(18)
O3A_2 O 0.5974(2) -0.2231(2) -0.31792(18)
O3_2 O 0.4026(2) 2.2231(2) 1.31792(18)
O4A O -0.0799(2) 0.1538(2) 0.71931(16)
O4A_2 O 0.9201(2) 0.1538(2) -0.28069(16)
O4_2 O 0.0799(2) 1.8462(2) 1.28069(16)
O5A O -0.2774(2) 0.05619(18) 0.60259(15)
O5_2 O 0.2774(2) 0.94381(18) 0.39741(15)
O5A_2 O 0.7226(2) 1.05619(18) 0.60259(15)
O5A_3 O 0.7226(2) 0.05619(18) -0.39741(15)
O5_3 O 0.2774(2) 1.94381(18) 1.39741(15)
O6A O -0.1155(2) 0.8919(2) 0.83520(17)
O6A_2 O 0.8845(2) -0.1081(2) -0.16480(17)
O6_2 O 0.1155(2) 2.1081(2) 1.16480(17)
O7A O -0.0697(3) 0.8245(2) 0.67279(18)
O2 O 0.1526(3) 1.1054(3) -0.0477(2)
loop_
_geom_bond_atom_site_label_1
_geom_bond_atom_site_label_2
_geom_bond_site_symmetry_1
_geom_bond_site_symmetry_2
Co1 N2 1_555 1_555
Co2 N4 1_555 1_555
C1 C2 1_555 1_555
C2 H1 1_555 1_555
C3 C2 1_555 1_555
H2 C3 1_555 1_555
C4 C3 1_555 1_555
C5 C4 1_555 1_555
H3 C5 1_555 1_555
C6 C1 1_555 1_555
H4 C6 1_555 1_555
C7 C1 1_555 1_555
C8 C7 1_555 1_555
H5 C8 1_555 1_555
C9 H6 1_555 1_555
C10 C4 1_555 1_555
C11 C10 1_555 1_555
H7 C11 1_555 1_555
C12 H8 1_555 1_555
C13 C14 1_555 1_555
C14 H9 1_555 1_555
C15 C14 1_555 1_555
C16 C15 1_555 1_555
H10 C16 1_555 1_555
C17 C16 1_555 1_555
C18 C13 1_555 1_555
H11 C18 1_555 1_555
C19 C13 1_555 1_555
H12 C19 1_555 1_555
H13 C19 1_555 1_555
C20 C19 1_555 1_555
C21 C15 1_555 1_555
H14 C21 1_555 1_555
H15 C21 1_555 1_555
C22 C21 1_555 1_555
C23 C17 1_555 1_555
H16 C23 1_555 1_555
H17 C23 1_555 1_555
C24 C23 1_555 1_555
N1 C7 1_555 1_555
H18 N1 1_555 1_555
N2 C8 1_555 1_555
N3 C10 1_555 1_555
H19 N3 1_555 1_555
N4 C11 1_555 1_555
O1 Co1 1_555 1_555
O3 C20 1_555 1_555
O4 C22 1_555 1_555
O5 C22 1_555 1_555
O6 C24 1_555 1_555
O7 C24 1_555 1_555
Co1_2 O5 1_555 1_555
Co1_3 O5A 1_555 1_555
Co2A N4A 1_555 1_555
Co2A_2 O3 1_555 1_555
Co2A_3 O4 1_555 1_555
Co2A_4 O6 1_555 1_555
Co2_2 O3A 1_555 1_555
Co2_3 O4A 1_555 1_555
Co2_4 O6A 1_555 1_555
C1A C2A 1_555 1_555
C2A H1A 1_555 1_555
C3A C2A 1_555 1_555
H2A C3A 1_555 1_555
C4A C3A 1_555 1_555
C5A C4A 1_555 1_555
H3A C5A 1_555 1_555
C6A C1A 1_555 1_555
H4A C6A 1_555 1_555
C7A C1A 1_555 1_555
C8A C7A 1_555 1_555
H5A C8A 1_555 1_555
C9A H6A 1_555 1_555
C10A C4A 1_555 1_555
C11A C10A 1_555 1_555
H7A C11A 1_555 1_555
C12A H8A 1_555 1_555
C13A C14A 1_555 1_555
C14A H9A 1_555 1_555
C15A C14A 1_555 1_555
C16A C15A 1_555 1_555
H10A C16A 1_555 1_555
C17A C16A 1_555 1_555
C18A C13A 1_555 1_555
H11A C18A 1_555 1_555
C19A C13A 1_555 1_555
H12A C19A 1_555 1_555
H13A C19A 1_555 1_555
C20A C19A 1_555 1_555
C21A C15A 1_555 1_555
H14A C21A 1_555 1_555
H15A C21A 1_555 1_555
C22A C21A 1_555 1_555
C23A C17A 1_555 1_555
H16A C23A 1_555 1_555
H17A C23A 1_555 1_555
C24A C23A 1_555 1_555
N1A C7A 1_555 1_555
H18A N1A 1_555 1_555
N2A Co1 1_555 1_555
N3A C10A 1_555 1_555
H19A N3A 1_555 1_555
N4A C11A 1_555 1_555
O1A Co1 1_555 1_555
O3A C20A 1_555 1_555
O3A_2 Co2 1_555 1_555
O3_2 Co2A 1_555 1_555
O4A C22A 1_555 1_555
O4A_2 Co2 1_555 1_555
O4_2 Co2A 1_555 1_555
O5A Co2_3 1_555 1_555
O5_2 Co1 1_555 1_555
O5A_2 Co1 1_555 1_555
O5A_3 Co2 1_555 1_555
O5_3 Co2A 1_555 1_555
O6A C24A 1_555 1_555
O6A_2 Co2 1_555 1_555
O6_2 Co2A 1_555 1_555
O7A C24A 1_555 1_555
C5 C6 1_555 1_555
C9 N1 1_555 1_555
C9 N2 1_555 1_555
C12 N3 1_555 1_555
C12 N4 1_555 1_555
C17 C18 1_555 1_555
C20 O1 1_555 1_555
O5 Co2A_3 1_555 1_555
Co2A_2 O5_2 1_555 1_555
Co2_2 O5A_2 1_555 1_555
C5A C6A 1_555 1_555
C8A N2A 1_555 1_555
C9A N1A 1_555 1_555
C9A N2A 1_555 1_555
C12A N3A 1_555 1_555
C12A N4A 1_555 1_555
C17A C18A 1_555 1_555
C20A O1A 1_555 1_555
C22A O5A 1_555 1_555

#END
