
#######################################################################
#
#                 Cambridge Crystallographic Data Centre
#                                CCDC 
#
#######################################################################
#
# If this CIF has been generated from an entry in the Cambridge 
# Structural Database, then it will include bibliographic, chemical, 
# crystal, experimental, refinement or atomic coordinate data resulting 
# from the CCDC's data processing and validation procedures.
#
#######################################################################

data_ZAWPAQ
_symmetry_cell_setting           triclinic
_symmetry_space_group_name_H-M   'P -1'
_symmetry_Int_Tables_number      2
_space_group_name_Hall           '-P 1'
loop_
_symmetry_equiv_pos_site_id
_symmetry_equiv_pos_as_xyz
1 x,y,z
2 -x,-y,-z
_cell_length_a                   7.615(2)
_cell_length_b                   11.504(4)
_cell_length_c                   12.038(3)
_cell_angle_alpha                106.623(10)
_cell_angle_beta                 96.423(10)
_cell_angle_gamma                94.816(11)
_cell_volume                     996.675
loop_
_atom_site_label
_atom_site_type_symbol
_atom_site_fract_x
_atom_site_fract_y
_atom_site_fract_z
Co1 Co 0.67640(14) 0.20314(9) 0.01030(8)
O1 O 0.4481(8) 0.2397(5) 0.0687(5)
O2 O 0.6418(8) 0.3632(5) 0.2126(5)
O3 O 0.2238(8) 0.6549(5) 0.0267(5)
O4 O 0.0088(8) 0.7265(5) 0.1290(5)
O5 O 0.2176(8) 0.5300(5) 0.5681(5)
H1 H 0.273(13) 0.555(9) 0.646(9)
O6 O 0.3212(10) 0.7057(5) 0.5420(5)
N1 N 0.9351(8) -0.0356(6) 0.1512(5)
H4 H 0.9614 -0.1093 0.1484
N2 N 0.8219(8) 0.1111(5) 0.0975(5)
N3 N 1.4489(9) -0.0472(6) 0.6873(5)
H5 H 1.4194 -0.1205 0.6371
N4 N 1.5674(8) 0.0974(6) 0.8466(5)
C1 C 1.0995(10) 0.0685(7) 0.3519(6)
C2 C 1.1343(10) -0.0409(7) 0.3717(6)
H6 H 1.0891 -0.1158 0.3135
C3 C 1.2324(10) -0.0432(7) 0.4733(6)
H7 H 1.2553 -0.1195 0.4839
C4 C 1.2990(10) 0.0643(7) 0.5612(6)
C5 C 1.2648(11) 0.1750(7) 0.5425(7)
H8 H 1.3113 0.2498 0.6004
C6 C 1.1639(11) 0.1769(7) 0.4403(7)
H9 H 1.1380 0.2528 0.4301
C7 C 0.9906(10) 0.0683(7) 0.2421(6)
C8 C 0.9197(10) 0.1594(7) 0.2079(6)
H10 H 0.9349 0.2431 0.2528
C9 C 0.8353(10) -0.0067(7) 0.0680(7)
H11 H 0.7803 -0.0638 -0.0038
C10 C 0.3299(11) 0.3961(7) 0.2056(7)
H12 H 0.2224 0.3345 0.1902
C11 C 0.2949(12) 0.4830(7) 0.1314(7)
H13 H 0.4048 0.5390 0.1394
H14 H 0.2643 0.4346 0.0479
C12 C 0.1428(11) 0.5587(7) 0.1689(7)
H15 H 0.0296 0.5016 0.1495
C13 C 0.1708(11) 0.6236(7) 0.3002(6)
H16 H 0.0638 0.6632 0.3218
H17 H 0.2730 0.6885 0.3194
C14 C 0.2059(10) 0.5354(7) 0.3728(6)
H18 H 0.0972 0.4753 0.3597
C15 C 0.3623(10) 0.4661(7) 0.3359(6)
H19 H 0.4720 0.5246 0.3530
H20 H 0.3804 0.4081 0.3818
C16 C 0.4844(11) 0.3301(7) 0.1633(6)
C17 C 0.1210(11) 0.6537(7) 0.1024(7)
C18 C 0.2510(10) 0.6014(7) 0.5018(6)
C19 C 1.4045(10) 0.0600(7) 0.6699(6)
C20 C 1.4778(10) 0.1487(7) 0.7694(6)
H21 H 1.4689 0.2335 0.7839
C21 C 1.5445(10) -0.0217(7) 0.7932(6)
H22 H 1.5899 -0.0810 0.8258
Co1A Co 0.32360(14) 0.79686(9) -0.01030(8)
Co1_2 Co 1.67640(14) 0.20314(9) 1.01030(8)
Co1A_2 Co -0.67640(14) 0.79686(9) -1.01030(8)
O1A O 0.5519(8) 0.7603(5) -0.0687(5)
O2A O 0.3582(8) 0.6368(5) -0.2126(5)
O3A O 0.7762(8) 0.3451(5) -0.0267(5)
O4A O 0.9912(8) 0.2735(5) -0.1290(5)
O5A O 0.7824(8) 0.4700(5) -0.5681(5)
H1A H 0.727(13) 0.445(9) -0.646(9)
O6A O 0.6788(10) 0.2943(5) -0.5420(5)
N1A N 0.0649(8) 1.0356(6) -0.1512(5)
H4A H 0.0386 1.1093 -0.1484
N2A N 0.1781(8) 0.8889(5) -0.0975(5)
N3A N -0.4489(9) 1.0472(6) -0.6873(5)
H5A H -0.4194 1.1205 -0.6371
N4A N -0.5674(8) 0.9026(6) -0.8466(5)
N4_2 N 0.5674(8) 0.0974(6) -0.1534(5)
N4A_2 N 0.4326(8) 0.9026(6) 0.1534(5)
C1A C -0.0995(10) 0.9315(7) -0.3519(6)
C2A C -0.1343(10) 1.0409(7) -0.3717(6)
H6A H -0.0891 1.1158 -0.3135
C3A C -0.2324(10) 1.0432(7) -0.4733(6)
H7A H -0.2553 1.1195 -0.4839
C4A C -0.2990(10) 0.9357(7) -0.5612(6)
C5A C -0.2648(11) 0.8250(7) -0.5425(7)
H8A H -0.3113 0.7502 -0.6004
C6A C -0.1639(11) 0.8231(7) -0.4403(7)
H9A H -0.1380 0.7472 -0.4301
C7A C 0.0094(10) 0.9317(7) -0.2421(6)
C8A C 0.0803(10) 0.8406(7) -0.2079(6)
H10A H 0.0651 0.7569 -0.2528
C9A C 0.1647(10) 1.0067(7) -0.0680(7)
H11A H 0.2197 1.0638 0.0038
C10A C 0.6701(11) 0.6039(7) -0.2056(7)
H12A H 0.7776 0.6655 -0.1902
C11A C 0.7051(12) 0.5170(7) -0.1314(7)
H13A H 0.5952 0.4610 -0.1394
H14A H 0.7357 0.5654 -0.0479
C12A C 0.8572(11) 0.4413(7) -0.1689(7)
H15A H 0.9704 0.4984 -0.1495
C13A C 0.8292(11) 0.3764(7) -0.3002(6)
H16A H 0.9362 0.3368 -0.3218
H17A H 0.7270 0.3115 -0.3194
C14A C 0.7941(10) 0.4646(7) -0.3728(6)
H18A H 0.9028 0.5247 -0.3597
C15A C 0.6377(10) 0.5339(7) -0.3359(6)
H19A H 0.5280 0.4754 -0.3530
H20A H 0.6196 0.5919 -0.3818
C16A C 0.5156(11) 0.6699(7) -0.1633(6)
C17A C 0.8790(11) 0.3463(7) -0.1024(7)
C18A C 0.7490(10) 0.3986(7) -0.5018(6)
C19A C -0.4045(10) 0.9400(7) -0.6699(6)
C20A C -0.4778(10) 0.8513(7) -0.7694(6)
H21A H -0.4689 0.7665 -0.7839
C21A C -0.5445(10) 1.0217(7) -0.7932(6)
H22A H -0.5899 1.0810 -0.8258
O7 O -0.278(2) 0.6108(13) 0.2041(13)
H2 H -0.33(3) 0.541(8) 0.171(18)
H3 H -0.20(2) 0.649(19) 0.178(19)
loop_
_geom_bond_atom_site_label_1
_geom_bond_atom_site_label_2
_geom_bond_site_symmetry_1
_geom_bond_site_symmetry_2
Co1 O1 1_555 1_555
O1 C16 1_555 1_555
O2 C16 1_555 1_555
O3 C17 1_555 1_555
O4 C17 1_555 1_555
O5 H1 1_555 1_555
O6 C18 1_555 1_555
O7 H2 1_555 1_555
H3 O7 1_555 1_555
N1 H4 1_555 1_555
N2 Co1 1_555 1_555
N3 H5 1_555 1_555
N4 C20 1_555 1_555
C1 C2 1_555 1_555
C2 H6 1_555 1_555
C3 C2 1_555 1_555
H7 C3 1_555 1_555
C4 C3 1_555 1_555
C5 C4 1_555 1_555
H8 C5 1_555 1_555
C6 C1 1_555 1_555
H9 C6 1_555 1_555
C7 N1 1_555 1_555
C8 N2 1_555 1_555
H10 C8 1_555 1_555
C9 N1 1_555 1_555
H11 C9 1_555 1_555
C10 H12 1_555 1_555
C11 C10 1_555 1_555
H13 C11 1_555 1_555
H14 C11 1_555 1_555
C12 C11 1_555 1_555
H15 C12 1_555 1_555
C13 C12 1_555 1_555
H16 C13 1_555 1_555
H17 C13 1_555 1_555
C14 C13 1_555 1_555
H18 C14 1_555 1_555
C15 C10 1_555 1_555
H19 C15 1_555 1_555
H20 C15 1_555 1_555
C16 C10 1_555 1_555
C17 C12 1_555 1_555
C18 O5 1_555 1_555
C19 N3 1_555 1_555
C20 C19 1_555 1_555
H21 C20 1_555 1_555
C21 N3 1_555 1_555
H22 C21 1_555 1_555
Co1A O3 1_555 1_555
Co1_2 N4 1_555 1_555
Co1A_2 N4A 1_555 1_555
O1A Co1A 1_555 1_555
O2A C16A 1_555 1_555
O3A Co1 1_555 1_555
O4A C17A 1_555 1_555
O5A H1A 1_555 1_555
O6A C18A 1_555 1_555
N1A H4A 1_555 1_555
N2A Co1A 1_555 1_555
N3A H5A 1_555 1_555
N4A C20A 1_555 1_555
N4_2 Co1 1_555 1_555
N4A_2 Co1A 1_555 1_555
C1A C2A 1_555 1_555
C2A H6A 1_555 1_555
C3A C2A 1_555 1_555
H7A C3A 1_555 1_555
C4A C3A 1_555 1_555
C5A C4A 1_555 1_555
H8A C5A 1_555 1_555
C6A C1A 1_555 1_555
H9A C6A 1_555 1_555
C7A N1A 1_555 1_555
C8A N2A 1_555 1_555
H10A C8A 1_555 1_555
C9A N1A 1_555 1_555
H11A C9A 1_555 1_555
C10A H12A 1_555 1_555
C11A C10A 1_555 1_555
H13A C11A 1_555 1_555
H14A C11A 1_555 1_555
C12A C11A 1_555 1_555
H15A C12A 1_555 1_555
C13A C12A 1_555 1_555
H16A C13A 1_555 1_555
H17A C13A 1_555 1_555
C14A C13A 1_555 1_555
H18A C14A 1_555 1_555
C15A C10A 1_555 1_555
H19A C15A 1_555 1_555
H20A C15A 1_555 1_555
C16A O1A 1_555 1_555
C17A O3A 1_555 1_555
C18A O5A 1_555 1_555
C19A N3A 1_555 1_555
C20A C19A 1_555 1_555
H21A C20A 1_555 1_555
C21A N3A 1_555 1_555
H22A C21A 1_555 1_555
N2 C9 1_555 1_555
N4 C21 1_555 1_555
C1 C7 1_555 1_555
C4 C19 1_555 1_555
C5 C6 1_555 1_555
C7 C8 1_555 1_555
C14 C15 1_555 1_555
C14 C18 1_555 1_555
N2A C9A 1_555 1_555
N4A C21A 1_555 1_555
C1A C7A 1_555 1_555
C4A C19A 1_555 1_555
C5A C6A 1_555 1_555
C7A C8A 1_555 1_555
C10A C16A 1_555 1_555
C12A C17A 1_555 1_555
C14A C15A 1_555 1_555
C14A C18A 1_555 1_555

#END
