
#######################################################################
#
#                 Cambridge Crystallographic Data Centre
#                                CCDC 
#
#######################################################################
#
# If this CIF has been generated from an entry in the Cambridge 
# Structural Database, then it will include bibliographic, chemical, 
# crystal, experimental, refinement or atomic coordinate data resulting 
# from the CCDC's data processing and validation procedures.
#
#######################################################################

data_ZAWRAS
_symmetry_cell_setting           monoclinic
_symmetry_space_group_name_H-M   'C 2/c'
_symmetry_Int_Tables_number      15
_space_group_name_Hall           '-C 2yn'
loop_
_symmetry_equiv_pos_site_id
_symmetry_equiv_pos_as_xyz
1 x,y,z
2 -x,y,1/2-z
3 1/2+x,1/2+y,z
4 1/2-x,1/2+y,1/2-z
5 -x,-y,-z
6 x,-y,1/2+z
7 1/2-x,1/2-y,-z
8 1/2+x,1/2-y,1/2+z
_cell_length_a                   15.6030(2)
_cell_length_b                   11.1260(1)
_cell_length_c                   29.8590(3)
_cell_angle_alpha                90
_cell_angle_beta                 90.711(1)
_cell_angle_gamma                90
_cell_volume                     5183.09
loop_
_atom_site_label
_atom_site_type_symbol
_atom_site_fract_x
_atom_site_fract_y
_atom_site_fract_z
Cu1 Cu 0.5000 0.19924(2) -0.2500
O1 O 0.50783(7) 0.19179(10) -0.31543(4)
N1 N 0.5000 0.01960(17) -0.2500
C1 C 0.56348(11) 0.24219(15) -0.33995(6)
O2 O 0.62929(8) 0.29471(12) -0.32562(4)
N2 N 0.5000 -0.61901(16) -0.2500
C2 C 0.54540(10) 0.23917(15) -0.38960(5)
O3 O 0.66240(8) 0.18859(12) -0.24608(4)
H1 H 0.6625 0.2298 -0.2696
C3 C 0.58609(11) 0.32086(16) -0.41737(6)
H2 H 0.6273 0.3746 -0.4050
C4 C 0.56734(11) 0.32500(16) -0.46283(6)
H4 H 0.5958 0.3817 -0.4812
C5 C 0.50711(10) 0.24696(15) -0.48212(6)
C6 C 0.46732(11) 0.16329(16) -0.45398(6)
H5 H 0.4267 0.1085 -0.4663
C7 C 0.48643(11) 0.15938(15) -0.40843(6)
H6 H 0.4590 0.1018 -0.3900
C8 C 0.48516(11) 0.25331(16) -0.53080(6)
C9 C 0.49465(12) 0.35976(18) -0.55477(6)
H7 H 0.5170 0.4289 -0.5401
C10 C 0.47185(13) 0.36656(19) -0.59995(6)
H8 H 0.4791 0.4398 -0.6158
C11 C 0.43883(12) 0.2672(2) -0.62176(6)
H9 H 0.4223 0.2723 -0.6524
C12 C 0.42993(12) 0.15989(19) -0.59874(6)
H10 H 0.4078 0.0910 -0.6137
C13 C 0.45327(12) 0.15279(18) -0.55371(6)
H11 H 0.4475 0.0786 -0.5383
C14 C 0.44912(11) -0.04260(15) -0.27810(5)
H12 H 0.4130 0.0005 -0.2983
C15 C 0.44693(11) -0.16662(14) -0.27899(5)
H13 H 0.4095 -0.2072 -0.2992
C16 C 0.5000 -0.2320(2) -0.2500
C17 C 0.5000 -0.3661(2) -0.2500
C18 C 0.46069(11) -0.43199(15) -0.28415(5)
H14 H 0.4328 -0.3915 -0.3082
C19 C 0.46213(11) -0.55610(15) -0.28312(5)
H15 H 0.4351 -0.5989 -0.3069
C20 C 0.74032(13) 0.2086(2) -0.22156(7)
H16 H 0.7865 0.2288 -0.2427
H17 H 0.7569 0.1337 -0.2058
C21 C 0.73185(12) 0.30839(18) -0.18798(7)
C22 C 0.76355(13) 0.4238(2) -0.19565(7)
H18 H 0.7947 0.4400 -0.2221
C23 C 0.74991(14) 0.51480(19) -0.16490(8)
H19 H 0.7723 0.5928 -0.1702
C24 C 0.70385(14) 0.4927(2) -0.12655(7)
H20 H 0.6941 0.5556 -0.1057
C25 C 0.67207(14) 0.3790(2) -0.11858(7)
H21 H 0.6402 0.3636 -0.0923
C26 C 0.68666(12) 0.28779(18) -0.14881(7)
H22 H 0.6655 0.2095 -0.1428
Cu1_2 Cu 0.5000 -0.80076(2) -0.2500
O1A O 0.49217(7) 0.19179(10) -0.18457(4)
C1A C 0.43652(11) 0.24219(15) -0.16005(6)
O2A O 0.37071(8) 0.29471(12) -0.17438(4)
N2_2 N 0.5000 0.38099(16) -0.2500
C2A C 0.45460(10) 0.23917(15) -0.11040(5)
O3A O 0.33760(8) 0.18859(12) -0.25392(4)
H1A H 0.3375 0.2298 -0.2304
C3A C 0.41391(11) 0.32086(16) -0.08263(6)
H2A H 0.3727 0.3746 -0.0950
C4A C 0.43266(11) 0.32500(16) -0.03717(6)
H4A H 0.4042 0.3817 -0.0188
C5A C 0.49289(10) 0.24696(15) -0.01788(6)
C6A C 0.53268(11) 0.16329(16) -0.04602(6)
H5A H 0.5733 0.1085 -0.0337
C7A C 0.51357(11) 0.15938(15) -0.09157(6)
H6A H 0.5410 0.1018 -0.1100
C8A C 0.51484(11) 0.25331(16) 0.03080(6)
C9A C 0.50535(12) 0.35976(18) 0.05477(6)
H7A H 0.4830 0.4289 0.0401
C10A C 0.52815(13) 0.36656(19) 0.09995(6)
H8A H 0.5209 0.4398 0.1158
C11A C 0.56117(12) 0.2672(2) 0.12176(6)
H9A H 0.5777 0.2723 0.1524
C12A C 0.57007(12) 0.15989(19) 0.09874(6)
H10A H 0.5922 0.0910 0.1137
C13A C 0.54673(12) 0.15279(18) 0.05371(6)
H11A H 0.5525 0.0786 0.0383
C14A C 0.55088(11) -0.04260(15) -0.22190(5)
H12A H 0.5870 0.0005 -0.2017
C15A C 0.55307(11) -0.16662(14) -0.22101(5)
H13A H 0.5905 -0.2072 -0.2008
C18A C 0.53931(11) -0.43199(15) -0.21585(5)
H14A H 0.5672 -0.3915 -0.1918
C19A C 0.53787(11) -0.55610(15) -0.21688(5)
H15A H 0.5649 -0.5989 -0.1931
C20A C 0.25968(13) 0.2086(2) -0.27844(7)
H16A H 0.2135 0.2288 -0.2573
H17A H 0.2431 0.1337 -0.2942
C21A C 0.26815(12) 0.30839(18) -0.31202(7)
C22A C 0.23645(13) 0.4238(2) -0.30435(7)
H18A H 0.2053 0.4400 -0.2779
C23A C 0.25009(14) 0.51480(19) -0.33510(8)
H19A H 0.2277 0.5928 -0.3298
C24A C 0.29615(14) 0.4927(2) -0.37345(7)
H20A H 0.3059 0.5556 -0.3943
C25A C 0.32793(14) 0.3790(2) -0.38142(7)
H21A H 0.3598 0.3636 -0.4077
C26A C 0.31334(12) 0.28779(18) -0.35119(7)
H22A H 0.3345 0.2095 -0.3572
O4 O 0.78541(10) 0.40035(18) -0.34447(5)
H3 H 0.7349 0.3768 -0.3407
C27 C 0.81619(14) 0.3549(2) -0.38537(8)
H23 H 0.7940 0.2723 -0.3895
H24 H 0.8795 0.3499 -0.3834
C28 C 0.79195(11) 0.42838(17) -0.42616(6)
C29 C 0.75255(11) 0.53905(17) -0.42267(7)
H25 H 0.7398 0.5709 -0.3940
C30 C 0.73162(13) 0.60381(19) -0.46098(8)
H26 H 0.7044 0.6798 -0.4585
C31 C 0.75023(14) 0.5582(2) -0.50273(8)
H27 H 0.7364 0.6031 -0.5289
C32 C 0.78888(14) 0.4476(2) -0.50638(7)
H28 H 0.8016 0.4160 -0.5351
C33 C 0.80908(12) 0.38284(19) -0.46849(7)
H29 H 0.8351 0.3060 -0.4712
loop_
_geom_bond_atom_site_label_1
_geom_bond_atom_site_label_2
_geom_bond_site_symmetry_1
_geom_bond_site_symmetry_2
Cu1 O1 1_555 1_555
O1 C1 1_555 1_555
N1 Cu1 1_555 1_555
C1 O2 1_555 1_555
N2 C19 1_555 1_555
C2 C1 1_555 1_555
O3 Cu1 1_555 1_555
H1 O3 1_555 1_555
C3 C2 1_555 1_555
H2 C3 1_555 1_555
O4 H3 1_555 1_555
C4 C3 1_555 1_555
H4 C4 1_555 1_555
C5 C4 1_555 1_555
C6 C5 1_555 1_555
H5 C6 1_555 1_555
C7 C2 1_555 1_555
H6 C7 1_555 1_555
C8 C5 1_555 1_555
C9 C8 1_555 1_555
H7 C9 1_555 1_555
C10 C9 1_555 1_555
H8 C10 1_555 1_555
C11 C10 1_555 1_555
H9 C11 1_555 1_555
C12 C11 1_555 1_555
H10 C12 1_555 1_555
C13 C8 1_555 1_555
H11 C13 1_555 1_555
C14 N1 1_555 1_555
H12 C14 1_555 1_555
C15 C14 1_555 1_555
H13 C15 1_555 1_555
C16 C15 1_555 1_555
C17 C16 1_555 1_555
C18 C17 1_555 1_555
H14 C18 1_555 1_555
C19 C18 1_555 1_555
H15 C19 1_555 1_555
C20 O3 1_555 1_555
H16 C20 1_555 1_555
H17 C20 1_555 1_555
C21 C20 1_555 1_555
C22 C21 1_555 1_555
H18 C22 1_555 1_555
C23 C22 1_555 1_555
H19 C23 1_555 1_555
C24 C23 1_555 1_555
H20 C24 1_555 1_555
C25 C24 1_555 1_555
H21 C25 1_555 1_555
C26 C21 1_555 1_555
H22 C26 1_555 1_555
C27 O4 1_555 1_555
H23 C27 1_555 1_555
H24 C27 1_555 1_555
C28 C27 1_555 1_555
C29 C28 1_555 1_555
H25 C29 1_555 1_555
C30 C29 1_555 1_555
H26 C30 1_555 1_555
C31 C30 1_555 1_555
H27 C31 1_555 1_555
C32 C31 1_555 1_555
H28 C32 1_555 1_555
C33 C28 1_555 1_555
H29 C33 1_555 1_555
Cu1_2 N2 1_555 1_555
O1A Cu1 1_555 1_555
C1A O1A 1_555 1_555
O2A C1A 1_555 1_555
N2_2 Cu1 1_555 1_555
C2A C1A 1_555 1_555
O3A Cu1 1_555 1_555
H1A O3A 1_555 1_555
C3A C2A 1_555 1_555
H2A C3A 1_555 1_555
C4A C3A 1_555 1_555
H4A C4A 1_555 1_555
C5A C4A 1_555 1_555
C6A C5A 1_555 1_555
H5A C6A 1_555 1_555
C7A C2A 1_555 1_555
H6A C7A 1_555 1_555
C8A C5A 1_555 1_555
C9A C8A 1_555 1_555
H7A C9A 1_555 1_555
C10A C9A 1_555 1_555
H8A C10A 1_555 1_555
C11A C10A 1_555 1_555
H9A C11A 1_555 1_555
C12A C11A 1_555 1_555
H10A C12A 1_555 1_555
C13A C8A 1_555 1_555
H11A C13A 1_555 1_555
C14A N1 1_555 1_555
H12A C14A 1_555 1_555
C15A C16 1_555 1_555
H13A C15A 1_555 1_555
C18A C17 1_555 1_555
H14A C18A 1_555 1_555
C19A N2 1_555 1_555
H15A C19A 1_555 1_555
C20A O3A 1_555 1_555
H16A C20A 1_555 1_555
H17A C20A 1_555 1_555
C21A C20A 1_555 1_555
C22A C21A 1_555 1_555
H18A C22A 1_555 1_555
C23A C22A 1_555 1_555
H19A C23A 1_555 1_555
C24A C23A 1_555 1_555
H20A C24A 1_555 1_555
C25A C24A 1_555 1_555
H21A C25A 1_555 1_555
C26A C21A 1_555 1_555
H22A C26A 1_555 1_555
C6 C7 1_555 1_555
C12 C13 1_555 1_555
C25 C26 1_555 1_555
C32 C33 1_555 1_555
C6A C7A 1_555 1_555
C12A C13A 1_555 1_555
C14A C15A 1_555 1_555
C18A C19A 1_555 1_555
C25A C26A 1_555 1_555

#END
