
#######################################################################
#
#                 Cambridge Crystallographic Data Centre
#                                CCDC 
#
#######################################################################
#
# If this CIF has been generated from an entry in the Cambridge 
# Structural Database, then it will include bibliographic, chemical, 
# crystal, experimental, refinement or atomic coordinate data resulting 
# from the CCDC's data processing and validation procedures.
#
#######################################################################

data_ZAWTUO
_symmetry_cell_setting           orthorhombic
_symmetry_space_group_name_H-M   'P b c a'
_symmetry_Int_Tables_number      61
_space_group_name_Hall           '-P 2ac 2ab'
loop_
_symmetry_equiv_pos_site_id
_symmetry_equiv_pos_as_xyz
1 x,y,z
2 1/2-x,-y,1/2+z
3 1/2+x,1/2-y,-z
4 -x,1/2+y,1/2-z
5 -x,-y,-z
6 1/2+x,y,1/2-z
7 1/2-x,1/2+y,z
8 x,1/2-y,1/2+z
_cell_length_a                   10.1525(10)
_cell_length_b                   13.5590(14)
_cell_length_c                   17.9533(19)
_cell_angle_alpha                90
_cell_angle_beta                 90
_cell_angle_gamma                90
_cell_volume                     2471.41
loop_
_atom_site_label
_atom_site_type_symbol
_atom_site_fract_x
_atom_site_fract_y
_atom_site_fract_z
Zn1 Zn 0.22913(3) 0.177804(17) 0.173635(12)
N1 N 0.19329(19) 0.31013(13) 0.37730(10)
N2 N 0.23365(17) 0.22372(13) 0.27742(10)
O1 O 0.53983(15) 0.54952(12) 0.29733(8)
O2 O 0.61948(16) 0.64628(12) 0.38540(8)
O3 O 0.35323(14) 0.73171(10) 0.60216(8)
O4 O 0.20322(17) 0.62596(11) 0.64237(9)
O5 O 0.11928(16) 0.05509(10) 0.17971(7)
H1 H 0.0794 0.0452 0.2189
H2 H 0.1459 -0.0019 0.1693
C1 C 0.23290(19) 0.46602(15) 0.44306(12)
C2 C 0.3344(2) 0.48920(15) 0.39436(10)
H3 H 0.3427 0.4551 0.3496
C3 C 0.42369(19) 0.56315(13) 0.41225(10)
C4 C 0.4094(2) 0.61456(13) 0.47816(10)
H4 H 0.4696 0.6638 0.4902
C5 C 0.3067(2) 0.59387(14) 0.52659(10)
C6 C 0.21947(19) 0.51857(15) 0.50850(11)
H5 H 0.1510 0.5034 0.5409
C7 C 0.1368(2) 0.38381(16) 0.42673(13)
H6 H 0.1111 0.3526 0.4731
H7 H 0.0583 0.4112 0.4039
C8 C 0.1563(2) 0.28988(15) 0.30789(12)
H8 H 0.0848 0.3189 0.2840
C9 C 0.3261(2) 0.20068(17) 0.33090(11)
H9 H 0.3940 0.1553 0.3254
C10 C 0.3021(2) 0.25452(17) 0.39229(12)
H10 H 0.3503 0.2540 0.4364
C11 C 0.53455(19) 0.58672(14) 0.35993(11)
C12 C 0.2863(2) 0.65289(15) 0.59651(12)
Zn1A Zn 0.27087(3) 0.822196(17) 0.673635(12)
Zn1C Zn 0.77087(3) 0.677804(17) 0.326365(12)
O2C O 0.38052(16) 0.14628(12) 0.11460(8)
O3A O 0.14677(14) 0.26829(10) 0.10216(8)
loop_
_geom_bond_atom_site_label_1
_geom_bond_atom_site_label_2
_geom_bond_site_symmetry_1
_geom_bond_site_symmetry_2
Zn1 N2 1_555 1_555
N1 C7 1_555 1_555
N2 C8 1_555 1_555
O1 C11 1_555 1_555
O2 C11 1_555 1_555
O3 C12 1_555 1_555
O4 C12 1_555 1_555
O5 Zn1 1_555 1_555
H1 O5 1_555 1_555
H2 O5 1_555 1_555
C1 C2 1_555 1_555
C2 H3 1_555 1_555
C3 C2 1_555 1_555
C4 C3 1_555 1_555
H4 C4 1_555 1_555
C5 C4 1_555 1_555
C6 C1 1_555 1_555
H5 C6 1_555 1_555
C7 C1 1_555 1_555
H6 C7 1_555 1_555
H7 C7 1_555 1_555
C8 N1 1_555 1_555
H8 C8 1_555 1_555
C9 N2 1_555 1_555
H9 C9 1_555 1_555
C10 N1 1_555 1_555
H10 C10 1_555 1_555
C11 C3 1_555 1_555
C12 C5 1_555 1_555
Zn1A O3 1_555 1_555
Zn1C O2 1_555 1_555
O2C Zn1 1_555 1_555
O3A Zn1 1_555 1_555
C5 C6 1_555 1_555
C9 C10 1_555 1_555

#END
