
#######################################################################
#
#                 Cambridge Crystallographic Data Centre
#                                CCDC 
#
#######################################################################
#
# If this CIF has been generated from an entry in the Cambridge 
# Structural Database, then it will include bibliographic, chemical, 
# crystal, experimental, refinement or atomic coordinate data resulting 
# from the CCDC's data processing and validation procedures.
#
#######################################################################

data_ZAWTIC
_symmetry_cell_setting           triclinic
_symmetry_space_group_name_H-M   'P -1'
_symmetry_Int_Tables_number      2
_space_group_name_Hall           '-P 1'
loop_
_symmetry_equiv_pos_site_id
_symmetry_equiv_pos_as_xyz
1 x,y,z
2 -x,-y,-z
_cell_length_a                   9.1431(7)
_cell_length_b                   10.1077(8)
_cell_length_c                   15.6537(18)
_cell_angle_alpha                95.1900(10)
_cell_angle_beta                 91.9440(10)
_cell_angle_gamma                116.7120(10)
_cell_volume                     1282.43
loop_
_atom_site_label
_atom_site_type_symbol
_atom_site_fract_x
_atom_site_fract_y
_atom_site_fract_z
Cd1 Cd 0.09475(5) 0.16826(4) 0.42107(2)
Cd2 Cd -0.05107(5) 0.80678(4) -0.07995(3)
N1 N -0.3813(6) 0.5478(5) 0.1054(3)
N2 N -0.2400(6) 0.6993(5) 0.0118(3)
N3 N 0.3325(5) 0.2165(4) 0.4962(3)
N4 N 0.5158(5) 0.1741(5) 0.5700(3)
O1 O -0.1349(5) 0.1945(4) 0.3407(2)
O2 O 0.0695(5) 0.3863(4) 0.4167(2)
O3 O 0.0522(4) 0.8784(4) 0.4593(2)
O4 O -0.0304(4) 0.9406(4) 0.3410(2)
O5 O 0.8249(5) 0.6053(4) 0.8088(2)
O6 O 0.9893(4) 0.5877(4) 0.9083(2)
O7 O 0.8120(5) -0.0891(4) 0.8529(2)
O8 O 0.8600(5) 0.0673(4) 0.9697(2)
O9 O 0.2552(4) 0.2519(4) 0.3072(2)
H1 H 0.2263 0.1841 0.2590
H2 H 0.2754 0.3356 0.2984
O10 O 0.1514(5) 0.9313(4) -0.1735(3)
H3 H 0.2294 0.9363 -0.1423
H4 H 0.1413 0.8887 -0.2218
C1 C -0.2937(6) 0.4887(6) 0.2398(3)
C2 C -0.2436(6) 0.3903(5) 0.2715(3)
H5 H -0.2919 0.2915 0.2467
C3 C -0.1234(6) 0.4357(5) 0.3392(3)
C4 C -0.0549(6) 0.5832(5) 0.3762(3)
H6 H 0.0238 0.6147 0.4227
C5 C -0.1006(6) 0.6834(5) 0.3459(3)
C6 C -0.2176(6) 0.6369(5) 0.2772(3)
H7 H -0.2463 0.7054 0.2554
C7 C -0.4240(7) 0.4359(6) 0.1663(3)
H8 H -0.4354 0.3428 0.1367
H9 H -0.5285 0.4178 0.1883
C8 C -0.2608(7) 0.5818(6) 0.0522(4)
H10 H -0.1992 0.5300 0.0445
C9 C -0.3521(7) 0.7443(6) 0.0434(4)
H11 H -0.3655 0.8250 0.0276
C10 C -0.4399(7) 0.6522(6) 0.1014(4)
H12 H -0.5225 0.6583 0.1320
C11 C -0.0597(7) 0.3318(6) 0.3674(4)
C12 C -0.0221(6) 0.8453(6) 0.3846(4)
C13 C 0.6651(6) 0.1615(6) 0.7056(3)
C14 C 0.6927(6) 0.0702(6) 0.7574(3)
H13 H 0.6505 -0.0309 0.7385
C15 C 0.7823(6) 0.1258(6) 0.8372(3)
C16 C 0.8430(6) 0.2770(5) 0.8651(3)
H14 H 0.9011 0.3161 0.9188
C17 C 0.8172(6) 0.3684(5) 0.8134(3)
C18 C 0.7276(6) 0.3105(5) 0.7344(3)
H15 H 0.7094 0.3733 0.7004
C19 C 0.5757(7) 0.0892(6) 0.6180(3)
H16 H 0.6490 0.0664 0.5832
H17 H 0.4827 -0.0049 0.6255
C20 C 0.3581(7) 0.1372(6) 0.5514(3)
H18 H 0.2733 0.0618 0.5755
C21 C 0.4900(8) 0.3124(6) 0.4783(4)
H19 H 0.5145 0.3837 0.4403
C22 C 0.6028(7) 0.2894(7) 0.5226(4)
H20 H 0.7164 0.3405 0.5216
C23 C 0.8204(7) 0.0283(6) 0.8913(4)
C24 C 0.8825(7) 0.5312(6) 0.8457(4)
Cd1A Cd -0.09475(5) 0.83174(4) 0.57893(2)
Cd1_2 Cd 0.09475(5) 1.16826(4) 0.42107(2)
Cd2_2 Cd 0.94893(5) 0.80678(4) 0.92005(3)
Cd2_3 Cd 0.94893(5) -0.19322(4) 0.92005(3)
Cd2A Cd 1.05107(5) 0.19322(4) 1.07995(3)
O3A O -0.0522(4) 0.1216(4) 0.5407(2)
O4_2 O -0.0304(4) -0.0594(4) 0.3410(2)
O5_2 O -0.1751(5) 0.6053(4) -0.1912(2)
O6_2 O -0.0107(4) 0.5877(4) -0.0917(2)
O7_2 O -0.1880(5) 0.9109(4) -0.1471(2)
O8A O 0.1400(5) 0.9327(4) 0.0303(2)
O11 O 0.5989(10) 0.1146(10) 0.0647(6)
loop_
_geom_bond_atom_site_label_1
_geom_bond_atom_site_label_2
_geom_bond_site_symmetry_1
_geom_bond_site_symmetry_2
Cd1 N3 1_555 1_555
Cd2 N2 1_555 1_555
N1 C7 1_555 1_555
N2 C8 1_555 1_555
N3 C20 1_555 1_555
N4 C19 1_555 1_555
O1 Cd1 1_555 1_555
O2 Cd1 1_555 1_555
O3 C12 1_555 1_555
O4 C12 1_555 1_555
O5 C24 1_555 1_555
O6 C24 1_555 1_555
O7 C23 1_555 1_555
O8 C23 1_555 1_555
O9 Cd1 1_555 1_555
H1 O9 1_555 1_555
H2 O9 1_555 1_555
O10 Cd2 1_555 1_555
H3 O10 1_555 1_555
H4 O10 1_555 1_555
C1 C2 1_555 1_555
C2 H5 1_555 1_555
C3 C2 1_555 1_555
C4 C3 1_555 1_555
H6 C4 1_555 1_555
C5 C4 1_555 1_555
C6 C1 1_555 1_555
H7 C6 1_555 1_555
C7 C1 1_555 1_555
H8 C7 1_555 1_555
H9 C7 1_555 1_555
C8 N1 1_555 1_555
H10 C8 1_555 1_555
C9 N2 1_555 1_555
H11 C9 1_555 1_555
C10 N1 1_555 1_555
H12 C10 1_555 1_555
C11 O1 1_555 1_555
C12 C5 1_555 1_555
C13 C14 1_555 1_555
C14 H13 1_555 1_555
C15 C14 1_555 1_555
C16 C15 1_555 1_555
H14 C16 1_555 1_555
C17 C16 1_555 1_555
C18 C13 1_555 1_555
H15 C18 1_555 1_555
C19 C13 1_555 1_555
H16 C19 1_555 1_555
H17 C19 1_555 1_555
C20 N4 1_555 1_555
H18 C20 1_555 1_555
C21 N3 1_555 1_555
H19 C21 1_555 1_555
C22 N4 1_555 1_555
H20 C22 1_555 1_555
C23 C15 1_555 1_555
C24 C17 1_555 1_555
Cd1A O3 1_555 1_555
Cd1_2 O4 1_555 1_555
Cd2_2 O5 1_555 1_555
Cd2_3 O7 1_555 1_555
Cd2A O8 1_555 1_555
O3A Cd1 1_555 1_555
O4_2 Cd1 1_555 1_555
O5_2 Cd2 1_555 1_555
O6_2 Cd2 1_555 1_555
O7_2 Cd2 1_555 1_555
O8A Cd2 1_555 1_555
O2 C11 1_555 1_555
O6 Cd2_2 1_555 1_555
C3 C11 1_555 1_555
C5 C6 1_555 1_555
C9 C10 1_555 1_555
C17 C18 1_555 1_555
C21 C22 1_555 1_555

#END
