
#######################################################################
#
#                 Cambridge Crystallographic Data Centre
#                                CCDC 
#
#######################################################################
#
# If this CIF has been generated from an entry in the Cambridge 
# Structural Database, then it will include bibliographic, chemical, 
# crystal, experimental, refinement or atomic coordinate data resulting 
# from the CCDC's data processing and validation procedures.
#
#######################################################################

data_ZAWTEY
_symmetry_cell_setting           monoclinic
_symmetry_space_group_name_H-M   'P 21/n'
_symmetry_Int_Tables_number      14
_space_group_name_Hall           '-P 2yn'
loop_
_symmetry_equiv_pos_site_id
_symmetry_equiv_pos_as_xyz
1 x,y,z
2 1/2-x,1/2+y,1/2-z
3 -x,-y,-z
4 1/2+x,1/2-y,1/2+z
_cell_length_a                   10.262(4)
_cell_length_b                   17.100(7)
_cell_length_c                   10.488(5)
_cell_angle_alpha                90
_cell_angle_beta                 119.160(5)
_cell_angle_gamma                90
_cell_volume                     1607.18
loop_
_atom_site_label
_atom_site_type_symbol
_atom_site_fract_x
_atom_site_fract_y
_atom_site_fract_z
Cd1 Cd 0.39621(3) 1.018047(16) 0.21443(3)
N1 N 0.3343(3) 1.22096(18) -0.0630(3)
N2 N 0.3220(3) 1.11953(19) 0.0596(4)
O1 O 0.2064(3) 1.43820(18) 0.1826(3)
O2 O 0.3634(4) 1.53350(19) 0.2939(4)
O3 O 0.8580(3) 1.52984(19) 0.2881(3)
O4 O 0.8843(3) 1.4471(2) 0.1409(3)
O5 O 0.3386(3) 0.92719(18) 0.0309(3)
H1 H 0.2641 0.8993 -0.0051
H2 H 0.3417 0.9533 -0.0330
O6 O 0.4666(4) 1.1027(2) 0.4163(4)
H3 H 0.5433 1.0889 0.4890
H4 H 0.4868 1.1471 0.4014
C1 C 0.4615(4) 1.3496(2) 0.0050(4)
C2 C 0.3749(4) 1.3796(2) 0.0615(4)
H5 H 0.2822 1.3575 0.0344
C3 C 0.4250(4) 1.4421(2) 0.1582(4)
C4 C 0.5658(4) 1.4738(2) 0.2009(4)
H6 H 0.5999 1.5158 0.2654
C5 C 0.6555(4) 1.4429(2) 0.1476(4)
C6 C 0.6023(4) 1.3803(2) 0.0495(4)
H7 H 0.6617 1.3591 0.0139
C7 C 0.4008(5) 1.2841(2) -0.1064(4)
H8 H 0.3261 1.3053 -0.1994
H9 H 0.4812 1.2630 -0.1196
C8 C 0.4100(4) 1.1636(2) 0.0311(4)
H10 H 0.5122 1.1558 0.0714
C9 C 0.1813(4) 1.1508(2) -0.0203(4)
H11 H 0.0953 1.1317 -0.0226
C10 C 0.1880(4) 1.2140(2) -0.0951(4)
H12 H 0.1091 1.2463 -0.1562
C11 C 0.3274(4) 1.4743(2) 0.2165(4)
C12 C 0.8084(4) 1.4753(2) 0.1956(4)
Cd1A Cd 0.10379(3) 1.518047(16) 0.28557(3)
Cd1A_2 Cd 1.10379(3) 1.518047(16) 0.28557(3)
O1A O 0.2936(3) 0.93820(18) 0.3174(3)
O2A O 0.1366(4) 1.03350(19) 0.2061(4)
O3A O 0.6420(3) 1.02984(19) 0.2119(3)
O4A O 0.6157(3) 0.9471(2) 0.3591(3)
O7 O 0.0744(4) 0.8507(2) 0.9028(5)
O8 O 0.4704(10) 0.7929(4) 0.3162(10)
O9 O 0.3171(12) 0.2618(4) 0.3210(9)
loop_
_geom_bond_atom_site_label_1
_geom_bond_atom_site_label_2
_geom_bond_site_symmetry_1
_geom_bond_site_symmetry_2
Cd1 N2 1_555 1_555
N1 C7 1_555 1_555
N2 C8 1_555 1_555
O1 C11 1_555 1_555
O2 C11 1_555 1_555
O3 C12 1_555 1_555
O4 C12 1_555 1_555
O5 Cd1 1_555 1_555
H1 O5 1_555 1_555
H2 O5 1_555 1_555
O6 Cd1 1_555 1_555
H3 O6 1_555 1_555
H4 O6 1_555 1_555
C1 C2 1_555 1_555
C2 H5 1_555 1_555
C3 C2 1_555 1_555
C4 C3 1_555 1_555
H6 C4 1_555 1_555
C5 C4 1_555 1_555
C6 C1 1_555 1_555
H7 C6 1_555 1_555
C7 C1 1_555 1_555
H8 C7 1_555 1_555
H9 C7 1_555 1_555
C8 N1 1_555 1_555
H10 C8 1_555 1_555
C9 N2 1_555 1_555
H11 C9 1_555 1_555
C10 N1 1_555 1_555
H12 C10 1_555 1_555
C11 C3 1_555 1_555
C12 C5 1_555 1_555
Cd1A O1 1_555 1_555
Cd1A_2 O3 1_555 1_555
O1A Cd1 1_555 1_555
O2A Cd1 1_555 1_555
O3A Cd1 1_555 1_555
O4A Cd1 1_555 1_555
O2 Cd1A 1_555 1_555
O4 Cd1A_2 1_555 1_555
C5 C6 1_555 1_555
C9 C10 1_555 1_555

#END
