
#######################################################################
#
#                 Cambridge Crystallographic Data Centre
#                                CCDC 
#
#######################################################################
#
# If this CIF has been generated from an entry in the Cambridge 
# Structural Database, then it will include bibliographic, chemical, 
# crystal, experimental, refinement or atomic coordinate data resulting 
# from the CCDC's data processing and validation procedures.
#
#######################################################################

data_ZAWYUT
_symmetry_cell_setting           monoclinic
_symmetry_space_group_name_H-M   'P 21/n'
_symmetry_Int_Tables_number      14
_space_group_name_Hall           '-P 2yn'
loop_
_symmetry_equiv_pos_site_id
_symmetry_equiv_pos_as_xyz
1 x,y,z
2 1/2-x,1/2+y,1/2-z
3 -x,-y,-z
4 1/2+x,1/2-y,1/2+z
_cell_length_a                   11.9950(15)
_cell_length_b                   12.3156(15)
_cell_length_c                   17.135(2)
_cell_angle_alpha                90
_cell_angle_beta                 92.546(2)
_cell_angle_gamma                90
_cell_volume                     2528.78
loop_
_atom_site_label
_atom_site_type_symbol
_atom_site_fract_x
_atom_site_fract_y
_atom_site_fract_z
Ni1 Ni 0.15436(3) 0.83635(3) 0.18998(2)
N1 N 0.03485(19) 1.71598(18) 0.18789(14)
N2 N -0.2149(2) 1.3858(2) 0.12621(16)
H1 H -0.2516 1.3933 0.0823
N3 N 0.22691(18) 0.78850(19) 0.29522(14)
N4 N 0.2949(2) 0.6290(2) 0.56494(15)
H2 H 0.3314 0.5715 0.5788
O1 O 0.06085(17) 0.96108(15) 0.23503(12)
O2 O -0.22113(16) 0.73530(16) 0.62357(12)
O3 O 0.05629(17) 0.93734(15) 0.10800(11)
O4 O -0.20411(17) 0.56974(15) 0.67021(13)
C1 C -0.1432(2) 1.2199(2) 0.07447(18)
H7 H -0.1787 1.2357 0.0265
C2 C -0.0448(3) 0.6433(2) 0.61118(18)
C3 C 0.0304(2) 0.9932(2) 0.16616(17)
C4 C -0.0830(2) 1.1248(2) 0.08348(17)
H8 H -0.0757 1.0790 0.0409
C5 C -0.0400(3) 1.1701(2) 0.21727(18)
H9 H -0.0061 1.1533 0.2656
C6 C -0.1515(2) 1.2931(2) 0.13685(17)
C7 C 0.2688(3) 0.6603(2) 0.39665(18)
H10 H 0.2673 0.5885 0.4134
C8 C -0.0327(2) 1.0966(2) 0.15590(16)
C9 C -0.0963(2) 1.2674(2) 0.20810(18)
H11 H -0.0976 1.3162 0.2495
C10 C -0.1311(2) 1.5545(2) 0.18568(18)
C11 C 0.3126(3) 0.8453(2) 0.41725(19)
H12 H 0.3420 0.9014 0.4480
C12 C -0.1614(3) 0.6495(2) 0.63522(18)
C13 C 0.2698(3) 0.8662(3) 0.34296(18)
H13 H 0.2705 0.9373 0.3249
C14 C 0.3115(2) 0.7405(2) 0.44587(17)
C15 C 0.0115(3) 0.7351(2) 0.58609(18)
H14 H -0.0273 0.8002 0.5800
C16 C -0.0339(2) 1.5429(2) 0.14512(19)
H15 H -0.0226 1.4805 0.1160
C17 C 0.1833(3) 0.6336(3) 0.57834(17)
C18 C 0.1228(3) 0.7319(2) 0.57017(18)
H16 H 0.1584 0.7945 0.5540
C19 C -0.1420(3) 1.6497(2) 0.22758(19)
H17 H -0.2053 1.6618 0.2557
C20 C 0.0146(3) 0.5455(3) 0.61840(19)
H18 H -0.0212 0.4831 0.6347
C21 C 0.2285(2) 0.6872(2) 0.32239(18)
H19 H 0.2011 0.6320 0.2899
C22 C 0.3541(3) 0.7160(3) 0.52865(18)
H20 H 0.4326 0.6971 0.5280
H21 H 0.3479 0.7811 0.5600
C23 C 0.1258(3) 0.5413(3) 0.60144(19)
H22 H 0.1635 0.4754 0.6055
C24 C -0.2242(2) 1.4711(2) 0.1835(2)
H23 H -0.2269 1.4381 0.2347
H24 H -0.2945 1.5086 0.1732
C25 C -0.0580(3) 1.7270(2) 0.22740(19)
H25 H -0.0668 1.7900 0.2564
C26 C 0.0459(2) 1.6238(2) 0.14802(19)
H26 H 0.1105 1.6135 0.1209
Ni1_2 Ni 0.15436(3) 1.83635(3) 0.18998(2)
Ni1C Ni -0.34564(3) 0.66365(3) 0.68998(2)
N1_2 N 0.03485(19) 0.71598(18) 0.18789(14)
O2C O 0.27887(16) 0.76470(16) 0.12357(12)
O4C O 0.29589(17) 0.93026(15) 0.17021(13)
O5 O 0.2983(2) 0.57983(19) 0.03316(15)
H3 H 0.3009 0.5922 0.0850
H4 H 0.3390 0.5193 0.0272
O6 O 0.4858(2) 0.4767(2) 0.10639(15)
H5 H 0.4665 0.4065 0.1109
H6 H 0.5535 0.4944 0.0897
H27? H 0.5228 0.1908 0.0958
H28? H 0.6208 0.2650 0.0719
O7? O 0.5514(8) 0.2575(8) 0.0890(5)
loop_
_geom_bond_atom_site_label_1
_geom_bond_atom_site_label_2
_geom_bond_site_symmetry_1
_geom_bond_site_symmetry_2
Ni1 N3 1_555 1_555
N1 C25 1_555 1_555
N2 H1 1_555 1_555
N3 C13 1_555 1_555
N4 H2 1_555 1_555
O1 Ni1 1_555 1_555
O2 C12 1_555 1_555
O3 Ni1 1_555 1_555
O4 C12 1_555 1_555
O5 H3 1_555 1_555
H4 O5 1_555 1_555
O6 H5 1_555 1_555
H6 O6 1_555 1_555
C1 H7 1_555 1_555
C2 C12 1_555 1_555
C3 O1 1_555 1_555
C4 C1 1_555 1_555
H8 C4 1_555 1_555
C5 H9 1_555 1_555
C6 N2 1_555 1_555
C7 H10 1_555 1_555
C8 C3 1_555 1_555
C9 C5 1_555 1_555
H11 C9 1_555 1_555
C10 C16 1_555 1_555
C11 H12 1_555 1_555
C13 C11 1_555 1_555
H13 C13 1_555 1_555
C14 C7 1_555 1_555
C15 C2 1_555 1_555
H14 C15 1_555 1_555
C16 H15 1_555 1_555
C17 N4 1_555 1_555
C18 C15 1_555 1_555
H16 C18 1_555 1_555
C19 C10 1_555 1_555
H17 C19 1_555 1_555
C20 C2 1_555 1_555
H18 C20 1_555 1_555
C21 N3 1_555 1_555
H19 C21 1_555 1_555
C22 N4 1_555 1_555
H20 C22 1_555 1_555
H21 C22 1_555 1_555
C23 C17 1_555 1_555
H22 C23 1_555 1_555
C24 N2 1_555 1_555
H23 C24 1_555 1_555
H24 C24 1_555 1_555
C25 C19 1_555 1_555
H25 C25 1_555 1_555
C26 N1 1_555 1_555
H26 C26 1_555 1_555
Ni1_2 N1 1_555 1_555
Ni1C O2 1_555 1_555
N1_2 Ni1 1_555 1_555
O2C Ni1 1_555 1_555
O4C Ni1 1_555 1_555
O3 C3 1_555 1_555
O4 Ni1C 1_555 1_555
C1 C6 1_555 1_555
C4 C8 1_555 1_555
C5 C8 1_555 1_555
C6 C9 1_555 1_555
C7 C21 1_555 1_555
C10 C24 1_555 1_555
C11 C14 1_555 1_555
C14 C22 1_555 1_555
C16 C26 1_555 1_555
C17 C18 1_555 1_555
C20 C23 1_555 1_555

#END
