
#######################################################################
#
#                 Cambridge Crystallographic Data Centre
#                                CCDC 
#
#######################################################################
#
# If this CIF has been generated from an entry in the Cambridge 
# Structural Database, then it will include bibliographic, chemical, 
# crystal, experimental, refinement or atomic coordinate data resulting 
# from the CCDC's data processing and validation procedures.
#
#######################################################################

data_ZAWZAA
_symmetry_cell_setting           monoclinic
_symmetry_space_group_name_H-M   'C 2/c'
_symmetry_Int_Tables_number      15
_space_group_name_Hall           '-C 2yn'
loop_
_symmetry_equiv_pos_site_id
_symmetry_equiv_pos_as_xyz
1 x,y,z
2 -x,y,1/2-z
3 1/2+x,1/2+y,z
4 1/2-x,1/2+y,1/2-z
5 -x,-y,-z
6 x,-y,1/2+z
7 1/2-x,1/2-y,-z
8 1/2+x,1/2-y,1/2+z
_cell_length_a                   20.278(4)
_cell_length_b                   12.247(2)
_cell_length_c                   10.404(2)
_cell_angle_alpha                90
_cell_angle_beta                 94.299(4)
_cell_angle_gamma                90
_cell_volume                     2576.51
loop_
_atom_site_label
_atom_site_type_symbol
_atom_site_fract_x
_atom_site_fract_y
_atom_site_fract_z
Ni1 Ni 0.5000 0.58013(4) 0.2500
N1 N 0.43549(12) 0.70039(19) 0.1702(2)
N2 N 0.27026(13) 1.0151(2) 0.0856(3)
H1 H 0.2352 0.9994 0.1233
O1 O 0.35178(11) 1.48697(18) 0.2837(2)
O2 O 0.44781(10) 0.58371(16) 0.41269(19)
H2 H 0.4134 0.5383 0.4197
H3 H 0.4595 0.6309 0.4767
O3 O 0.43929(10) 1.45627(15) 0.17130(19)
C1 C 0.41382(17) 0.6974(3) 0.0468(3)
H4 H 0.4291 0.6420 -0.0044
C2 C 0.36988(18) 0.7719(3) -0.0096(3)
H5 H 0.3561 0.7657 -0.0966
C3 C 0.34609(15) 0.8561(2) 0.0628(3)
C4 C 0.36982(15) 0.8609(2) 0.1900(3)
H6 H 0.3564 0.9167 0.2427
C5 C 0.41349(16) 0.7828(2) 0.2391(3)
H7 H 0.4286 0.7878 0.3255
C6 C 0.29570(16) 0.9347(2) 0.0011(3)
H8 H 0.3156 0.9726 -0.0681
H9 H 0.2588 0.8927 -0.0374
C7 C 0.29863(15) 1.1150(2) 0.1092(3)
C8 C 0.36437(15) 1.1383(2) 0.0862(3)
H10 H 0.3903 1.0848 0.0516
C9 C 0.39097(15) 1.2406(2) 0.1146(3)
H11 H 0.4348 1.2542 0.0992
C10 C 0.35382(14) 1.3231(2) 0.1654(3)
C11 C 0.28836(15) 1.2993(2) 0.1868(3)
H12 H 0.2623 1.3533 0.2202
C12 C 0.26137(15) 1.1992(2) 0.1605(3)
H13 H 0.2176 1.1862 0.1767
C13 C 0.38321(15) 1.4299(2) 0.2084(3)
Ni1_2 Ni 0.5000 1.58013(4) 0.2500
N1A N 0.56451(12) 0.70039(19) 0.3298(2)
N2A N 0.72974(13) 1.0151(2) 0.4144(3)
H1A H 0.7648 0.9994 0.3767
O1A O 0.64822(11) 1.48697(18) 0.2163(2)
O2A O 0.55219(10) 0.58371(16) 0.08731(19)
H2A H 0.5866 0.5383 0.0803
H3A H 0.5405 0.6309 0.0233
O3A O 0.56071(10) 1.45627(15) 0.32870(19)
O3_2 O 0.43929(10) 0.45627(15) 0.17130(19)
O3A_2 O 0.56071(10) 0.45627(15) 0.32870(19)
C1A C 0.58618(17) 0.6974(3) 0.4532(3)
H4A H 0.5709 0.6420 0.5044
C2A C 0.63012(18) 0.7719(3) 0.5096(3)
H5A H 0.6439 0.7657 0.5966
C3A C 0.65391(15) 0.8561(2) 0.4372(3)
C4A C 0.63018(15) 0.8609(2) 0.3100(3)
H6A H 0.6436 0.9167 0.2573
C5A C 0.58651(16) 0.7828(2) 0.2609(3)
H7A H 0.5714 0.7878 0.1745
C6A C 0.70430(16) 0.9347(2) 0.4989(3)
H8A H 0.6844 0.9726 0.5681
H9A H 0.7412 0.8927 0.5374
C7A C 0.70137(15) 1.1150(2) 0.3908(3)
C8A C 0.63563(15) 1.1383(2) 0.4138(3)
H10A H 0.6097 1.0848 0.4484
C9A C 0.60903(15) 1.2406(2) 0.3854(3)
H11A H 0.5652 1.2542 0.4008
C10A C 0.64618(14) 1.3231(2) 0.3346(3)
C11A C 0.71164(15) 1.2993(2) 0.3132(3)
H12A H 0.7377 1.3533 0.2798
C12A C 0.73863(15) 1.1992(2) 0.3395(3)
H13A H 0.7824 1.1862 0.3233
C13A C 0.61679(15) 1.4299(2) 0.2916(3)
loop_
_geom_bond_atom_site_label_1
_geom_bond_atom_site_label_2
_geom_bond_site_symmetry_1
_geom_bond_site_symmetry_2
Ni1 N1 1_555 1_555
N1 C1 1_555 1_555
N2 H1 1_555 1_555
O1 C13 1_555 1_555
O2 Ni1 1_555 1_555
H2 O2 1_555 1_555
H3 O2 1_555 1_555
O3 C13 1_555 1_555
C1 H4 1_555 1_555
C2 C1 1_555 1_555
H5 C2 1_555 1_555
C3 C2 1_555 1_555
C4 C3 1_555 1_555
H6 C4 1_555 1_555
C5 N1 1_555 1_555
H7 C5 1_555 1_555
C6 N2 1_555 1_555
H8 C6 1_555 1_555
H9 C6 1_555 1_555
C7 N2 1_555 1_555
C8 C7 1_555 1_555
H10 C8 1_555 1_555
C9 C8 1_555 1_555
H11 C9 1_555 1_555
C10 C9 1_555 1_555
C11 C10 1_555 1_555
H12 C11 1_555 1_555
C12 C7 1_555 1_555
H13 C12 1_555 1_555
C13 C10 1_555 1_555
Ni1_2 O3 1_555 1_555
N1A Ni1 1_555 1_555
N2A H1A 1_555 1_555
O1A C13A 1_555 1_555
O2A Ni1 1_555 1_555
H2A O2A 1_555 1_555
H3A O2A 1_555 1_555
O3A Ni1_2 1_555 1_555
O3_2 Ni1 1_555 1_555
O3A_2 Ni1 1_555 1_555
C1A N1A 1_555 1_555
H4A C1A 1_555 1_555
C2A C1A 1_555 1_555
H5A C2A 1_555 1_555
C3A C2A 1_555 1_555
C4A C3A 1_555 1_555
H6A C4A 1_555 1_555
C5A N1A 1_555 1_555
H7A C5A 1_555 1_555
C6A N2A 1_555 1_555
H8A C6A 1_555 1_555
H9A C6A 1_555 1_555
C7A N2A 1_555 1_555
C8A C7A 1_555 1_555
H10A C8A 1_555 1_555
C9A C8A 1_555 1_555
H11A C9A 1_555 1_555
C10A C9A 1_555 1_555
C11A C10A 1_555 1_555
H12A C11A 1_555 1_555
C12A C7A 1_555 1_555
H13A C12A 1_555 1_555
C13A O3A 1_555 1_555
C3 C6 1_555 1_555
C4 C5 1_555 1_555
C11 C12 1_555 1_555
C3A C6A 1_555 1_555
C4A C5A 1_555 1_555
C10A C13A 1_555 1_555
C11A C12A 1_555 1_555

#END
