
#######################################################################
#
#                 Cambridge Crystallographic Data Centre
#                                CCDC 
#
#######################################################################
#
# If this CIF has been generated from an entry in the Cambridge 
# Structural Database, then it will include bibliographic, chemical, 
# crystal, experimental, refinement or atomic coordinate data resulting 
# from the CCDC's data processing and validation procedures.
#
#######################################################################

data_ZAXBAB
_symmetry_cell_setting           monoclinic
_symmetry_space_group_name_H-M   'P 21/c'
_symmetry_Int_Tables_number      14
_space_group_name_Hall           '-P 2ybc'
loop_
_symmetry_equiv_pos_site_id
_symmetry_equiv_pos_as_xyz
1 x,y,z
2 -x,1/2+y,1/2-z
3 -x,-y,-z
4 x,1/2-y,1/2+z
_cell_length_a                   8.820(3)
_cell_length_b                   11.830(3)
_cell_length_c                   7.039(1)
_cell_angle_alpha                90
_cell_angle_beta                 95.28(2)
_cell_angle_gamma                90
_cell_volume                     731.337
loop_
_atom_site_label
_atom_site_type_symbol
_atom_site_fract_x
_atom_site_fract_y
_atom_site_fract_z
Bi1 Bi -0.4086(1) -0.0714(1) -0.2406(2)
P1 P 0.3125(3) 0.1332(3) -0.2731(6)
O1 O 0.382(1) 0.087(1) -0.085(2)
O2 O 0.407(1) 0.090(1) -0.438(2)
O3 O 0.302(1) 0.258(1) -0.267(2)
O4 O -0.263(1) 0.129(1) -0.163(2)
O5 O -0.149(1) -0.032(1) -0.241(2)
O6 O -0.664(1) -0.166(1) -0.234(2)
C1 C 0.124(1) 0.089(1) -0.319(2)
C2 C 0.018(2) 0.137(1) -0.174(3)
C3 C -0.148(2) 0.079(2) -0.205(3)
Bi1B Bi 0.4086(1) 0.0714(1) 0.2406(2)
Bi1B_2 Bi 0.4086(1) 0.0714(1) -0.7594(2)
Bi1A Bi 0.4086(1) 0.4286(1) -0.2594(2)
Bi1_2 Bi 0.5914(1) -0.0714(1) -0.2406(2)
O1_2 O -0.618(1) 0.087(1) -0.085(2)
O1B O -0.382(1) -0.087(1) 0.085(2)
O2_2 O -0.593(1) 0.090(1) -0.438(2)
O2B O -0.407(1) -0.090(1) -0.562(2)
O3A O -0.302(1) -0.242(1) -0.233(2)
loop_
_geom_bond_atom_site_label_1
_geom_bond_atom_site_label_2
_geom_bond_site_symmetry_1
_geom_bond_site_symmetry_2
Bi1 O4 1_555 1_555
P1 O1 1_555 1_555
O1 Bi1B 1_555 1_555
O2 P1 1_555 1_555
O3 P1 1_555 1_555
O4 C3 1_555 1_555
O5 Bi1 1_555 1_555
O6 Bi1 1_555 1_555
C1 P1 1_555 1_555
C2 C1 1_555 1_555
C3 O5 1_555 1_555
Bi1B_2 O2 1_555 1_555
Bi1A O3 1_555 1_555
Bi1_2 O1 1_555 1_555
O1_2 Bi1 1_555 1_555
O1B Bi1 1_555 1_555
O2_2 Bi1 1_555 1_555
O2B Bi1 1_555 1_555
O3A Bi1 1_555 1_555
O2 Bi1_2 1_555 1_555
C2 C3 1_555 1_555

#END
