
#######################################################################
#
#                 Cambridge Crystallographic Data Centre
#                                CCDC 
#
#######################################################################
#
# If this CIF has been generated from an entry in the Cambridge 
# Structural Database, then it will include bibliographic, chemical, 
# crystal, experimental, refinement or atomic coordinate data resulting 
# from the CCDC's data processing and validation procedures.
#
#######################################################################

data_ZAXGUC
_symmetry_cell_setting           tetragonal
_symmetry_space_group_name_H-M   'I 41/a'
_symmetry_Int_Tables_number      88
_space_group_name_Hall           '-I 4ad'
loop_
_symmetry_equiv_pos_site_id
_symmetry_equiv_pos_as_xyz
1 x,y,z
2 1/2-x,-y,1/2+z
3 3/4-y,1/4+x,1/4+z
4 3/4+y,3/4-x,3/4+z
5 1/2+x,1/2+y,1/2+z
6 -x,1/2-y,z
7 1/4-y,3/4+x,3/4+z
8 1/4+y,1/4-x,1/4+z
9 -x,-y,-z
10 1/2+x,y,1/2-z
11 1/4+y,3/4-x,3/4-z
12 1/4-y,1/4+x,1/4-z
13 1/2-x,1/2-y,1/2-z
14 x,1/2+y,-z
15 3/4+y,1/4-x,1/4-z
16 3/4-y,3/4+x,3/4-z
_cell_length_a                   13.7661(19)
_cell_length_b                   13.7661(19)
_cell_length_c                   28.859(6)
_cell_angle_alpha                90
_cell_angle_beta                 90
_cell_angle_gamma                90
_cell_volume                     5468.94
loop_
_atom_site_label
_atom_site_type_symbol
_atom_site_fract_x
_atom_site_fract_y
_atom_site_fract_z
Cd1 Cd 0.0000 0.7500 0.124799(10)
N1 N 0.1205(2) 0.9412(2) 0.12067(10)
N2 N -0.10964(18) 0.78473(19) 0.18509(9)
N3 N -0.16636(18) 0.89766(19) 0.23335(9)
C1 C 0.0193(2) 1.1311(2) 0.27330(10)
N4 N 0.0392(2) 0.9139(2) 0.12125(10)
C2 C -0.1145(2) 0.7459(2) 0.22978(11)
C3 C -0.1491(2) 0.8162(2) 0.26050(11)
N5 N -0.0247(2) 1.1267(2) 0.31700(9)
C4 C -0.0186(2) 1.0866(3) 0.19348(12)
H1 H -0.0596 1.0578 0.1718
C5 C -0.1418(2) 0.8737(2) 0.18935(11)
H2 H -0.1474 0.9164 0.1645
C6 C -0.0403(2) 1.0865(2) 0.24055(11)
C7 C 0.1060(2) 1.1747(3) 0.25982(13)
H3 H 0.1474 1.2032 0.2814
N6 N -0.11932(19) 1.05161(19) 0.26549(9)
C8 C -0.1991(2) 0.9930(2) 0.24787(12)
H4 H -0.2480 0.9859 0.2718
H5 H -0.2288 1.0260 0.2218
C9 C -0.1344(3) 0.7074(3) 0.32284(13)
H6 H -0.1400 0.6926 0.3542
C10 C -0.0906(2) 0.6530(3) 0.24562(13)
H7 H -0.0689 0.6049 0.2255
C11 C 0.0659(3) 1.1314(3) 0.18062(13)
H8 H 0.0825 1.1335 0.1494
C12 C -0.1598(2) 0.7990(3) 0.30770(12)
H9 H -0.1827 0.8464 0.3279
C13 C -0.1055(2) 1.0783(2) 0.31028(11)
H10 H -0.1491 1.0637 0.3339
N7 N 0.1999(3) 0.9707(3) 0.11952(14)
C14 C -0.1005(3) 0.6362(3) 0.29246(14)
H11 H -0.0842 0.5754 0.3042
C15 C 0.1279(3) 1.1740(3) 0.21306(14)
H12 H 0.1854 1.2026 0.2030
Cd1B Cd 0.0000 0.2500 0.374799(10)
Cd1B_2 Cd 0.0000 1.2500 0.374799(10)
N1E N -0.1205(2) 0.5588(2) 0.12067(10)
N2E N 0.10964(18) 0.71527(19) 0.18509(9)
N3E N 0.16636(18) 0.60234(19) 0.23335(9)
C1E C -0.0193(2) 0.3689(2) 0.27330(10)
N4E N -0.0392(2) 0.5861(2) 0.12125(10)
C2E C 0.1145(2) 0.7541(2) 0.22978(11)
C3E C 0.1491(2) 0.6838(2) 0.26050(11)
N5E N 0.0247(2) 0.3733(2) 0.31700(9)
N5C N -0.1233(2) 0.7747(2) 0.06700(9)
N5F N 0.1233(2) 0.7253(2) 0.06700(9)
C4E C 0.0186(2) 0.4134(3) 0.19348(12)
H1E H 0.0596 0.4422 0.1718
C5E C 0.1418(2) 0.6263(2) 0.18935(11)
H2E H 0.1474 0.5836 0.1645
C6E C 0.0403(2) 0.4135(2) 0.24055(11)
C7E C -0.1060(2) 0.3253(3) 0.25982(13)
H3E H -0.1474 0.2968 0.2814
N6E N 0.11932(19) 0.44839(19) 0.26549(9)
C8E C 0.1991(2) 0.5070(2) 0.24787(12)
H4E H 0.2480 0.5141 0.2718
H5E H 0.2288 0.4740 0.2218
C9E C 0.1344(3) 0.7926(3) 0.32284(13)
H6E H 0.1400 0.8074 0.3542
C10E C 0.0906(2) 0.8470(3) 0.24562(13)
H7E H 0.0689 0.8951 0.2255
C11E C -0.0659(3) 0.3686(3) 0.18062(13)
H8E H -0.0825 0.3665 0.1494
C12E C 0.1598(2) 0.7010(3) 0.30770(12)
H9E H 0.1827 0.6536 0.3279
C13E C 0.1055(2) 0.4217(2) 0.31028(11)
H10E H 0.1491 0.4363 0.3339
N7E N -0.1999(3) 0.5293(3) 0.11952(14)
C14E C 0.1005(3) 0.8638(3) 0.29246(14)
H11E H 0.0842 0.9246 0.3042
C15E C -0.1279(3) 0.3260(3) 0.21306(14)
H12E H -0.1854 0.2974 0.2030
loop_
_geom_bond_atom_site_label_1
_geom_bond_atom_site_label_2
_geom_bond_site_symmetry_1
_geom_bond_site_symmetry_2
Cd1 N2 1_555 1_555
N1 N4 1_555 1_555
N2 C2 1_555 1_555
N3 C3 1_555 1_555
C1 N5 1_555 1_555
N4 Cd1 1_555 1_555
C2 C3 1_555 1_555
C3 C12 1_555 1_555
N5 C13 1_555 1_555
C4 H1 1_555 1_555
C5 N2 1_555 1_555
H2 C5 1_555 1_555
C6 C1 1_555 1_555
C7 C1 1_555 1_555
H3 C7 1_555 1_555
N6 C6 1_555 1_555
C8 N3 1_555 1_555
H4 C8 1_555 1_555
H5 C8 1_555 1_555
C9 H6 1_555 1_555
C10 C2 1_555 1_555
H7 C10 1_555 1_555
C11 C4 1_555 1_555
H8 C11 1_555 1_555
C12 C9 1_555 1_555
H9 C12 1_555 1_555
C13 N6 1_555 1_555
H10 C13 1_555 1_555
N7 N1 1_555 1_555
C14 C9 1_555 1_555
H11 C14 1_555 1_555
C15 C7 1_555 1_555
H12 C15 1_555 1_555
Cd1B N5E 1_555 1_555
Cd1B_2 N5 1_555 1_555
N1E N4E 1_555 1_555
N2E Cd1 1_555 1_555
N3E C3E 1_555 1_555
C1E N5E 1_555 1_555
N4E Cd1 1_555 1_555
C2E N2E 1_555 1_555
C3E C2E 1_555 1_555
N5E C13E 1_555 1_555
N5C Cd1 1_555 1_555
N5F Cd1 1_555 1_555
C4E H1E 1_555 1_555
C5E N2E 1_555 1_555
H2E C5E 1_555 1_555
C6E C1E 1_555 1_555
C7E C1E 1_555 1_555
H3E C7E 1_555 1_555
N6E C6E 1_555 1_555
C8E N3E 1_555 1_555
H4E C8E 1_555 1_555
H5E C8E 1_555 1_555
C9E H6E 1_555 1_555
C10E C2E 1_555 1_555
H7E C10E 1_555 1_555
C11E C4E 1_555 1_555
H8E C11E 1_555 1_555
C12E C3E 1_555 1_555
H9E C12E 1_555 1_555
C13E N6E 1_555 1_555
H10E C13E 1_555 1_555
N7E N1E 1_555 1_555
C14E C9E 1_555 1_555
H11E C14E 1_555 1_555
C15E C7E 1_555 1_555
H12E C15E 1_555 1_555
N3 C5 1_555 1_555
C4 C6 1_555 1_555
N6 C8 1_555 1_555
C10 C14 1_555 1_555
C11 C15 1_555 1_555
N3E C5E 1_555 1_555
C4E C6E 1_555 1_555
N6E C8E 1_555 1_555
C9E C12E 1_555 1_555
C10E C14E 1_555 1_555
C11E C15E 1_555 1_555

#END
