
#######################################################################
#
#                 Cambridge Crystallographic Data Centre
#                                CCDC 
#
#######################################################################
#
# If this CIF has been generated from an entry in the Cambridge 
# Structural Database, then it will include bibliographic, chemical, 
# crystal, experimental, refinement or atomic coordinate data resulting 
# from the CCDC's data processing and validation procedures.
#
#######################################################################

data_ZAXKUG
_symmetry_cell_setting           monoclinic
_symmetry_space_group_name_H-M   'C 2/c'
_symmetry_Int_Tables_number      15
_space_group_name_Hall           '-C 2yn'
loop_
_symmetry_equiv_pos_site_id
_symmetry_equiv_pos_as_xyz
1 x,y,z
2 -x,y,1/2-z
3 1/2+x,1/2+y,z
4 1/2-x,1/2+y,1/2-z
5 -x,-y,-z
6 x,-y,1/2+z
7 1/2-x,1/2-y,-z
8 1/2+x,1/2-y,1/2+z
_cell_length_a                   10.2084(6)
_cell_length_b                   17.113(3)
_cell_length_c                   22.766(2)
_cell_angle_alpha                90
_cell_angle_beta                 90.826(18)
_cell_angle_gamma                90
_cell_volume                     3976.72
loop_
_atom_site_label
_atom_site_type_symbol
_atom_site_fract_x
_atom_site_fract_y
_atom_site_fract_z
Zn1 Zn 0.94187(3) 1.122715(19) 0.486359(14)
Zn2 Zn 0.5000 0.82057(3) 0.2500
C1 C 0.2639(4) 0.7190(2) 0.22136(15)
H1 H 0.2533 0.7404 0.1841
C2 C 0.3275(5) 0.6947(3) 0.30680(17)
H2 H 0.3735 0.6979 0.3423
C3 C 0.0803(5) 0.6216(3) 0.2113(2)
H3 H 0.0257 0.6601 0.1915
H4 H 0.1164 0.5875 0.1815
C4 C 0.0000 0.5759(3) 0.2500
H5 H -0.0564 0.5425 0.2264
C5 C 1.0289(3) 1.08381(18) 0.60829(13)
H6 H 1.0694 1.0379 0.5962
C6 C 0.9198(3) 1.18797(18) 0.61081(13)
H7 H 0.8669 1.2295 0.5988
C7 C 0.4395(3) 0.97360(16) 0.38520(12)
C8 C 0.5584(3) 1.00416(15) 0.40525(12)
H8 H 0.6365 0.9829 0.3920
C9 C 0.5618(3) 1.06578(16) 0.44469(11)
C10 C 0.4439(3) 1.09687(16) 0.46466(12)
H9 H 0.4452 1.1395 0.4900
C11 C 0.3246(3) 1.06471(16) 0.44702(12)
C12 C 0.3234(3) 1.00368(16) 0.40704(12)
H10 H 0.2439 0.9825 0.3946
C13 C 0.4320(3) 0.91600(17) 0.33572(13)
C14 C 0.6904(3) 1.09920(16) 0.46557(12)
C15 C 0.1984(3) 1.09814(17) 0.46999(13)
C16 C 1.0969(3) 1.0781(2) 0.71463(14)
H11 H 1.1332 1.1192 0.7392
H12 H 1.1683 1.0444 0.7028
C17 C 1.0000 1.0308(3) 0.7500
H13 H 0.9512 0.9973 0.7232
N1 N 0.3541(3) 0.74067(14) 0.26023(11)
N2 N 0.2319(4) 0.6455(2) 0.29789(16)
N3 N 0.1914(4) 0.66291(18) 0.24299(13)
N4 N 0.9564(2) 1.12943(14) 0.57420(10)
N5 N 1.0357(3) 1.11294(15) 0.66241(11)
N6 N 0.9657(3) 1.18088(16) 0.66480(11)
O1 O 0.5385(2) 0.87741(11) 0.32351(9)
O2 O 0.3313(2) 0.90955(13) 0.30607(10)
O3 O 0.79389(18) 1.06330(11) 0.45068(8)
O4 O 0.69298(19) 1.16002(11) 0.49657(9)
O5 O 0.2009(2) 1.15370(12) 0.50548(9)
O6 O 0.09097(18) 1.06760(12) 0.45073(9)
O7 O 0.94000(18) 1.22709(11) 0.44738(8)
H14 H 1.0171 1.2382 0.4373
H15 H 0.9039 1.2652 0.4653
Zn1_2 Zn 1.94187(3) 1.122715(19) 0.486359(14)
Zn1_3 Zn -0.05813(3) 1.122715(19) 0.486359(14)
Zn1A Zn 1.05813(3) 1.122715(19) 1.013641(14)
Zn2_2 Zn -0.5000 0.82057(3) 0.2500
Zn2_3 Zn 1.5000 0.82057(3) 0.2500
C1A C -0.2639(4) 0.7190(2) 0.27864(15)
H1A H -0.2533 0.7404 0.3159
C2A C -0.3275(5) 0.6947(3) 0.19320(17)
H2A H -0.3735 0.6979 0.1577
C3A C -0.0803(5) 0.6216(3) 0.2887(2)
H3A H -0.0257 0.6601 0.3085
H4A H -0.1164 0.5875 0.3185
H5A H 0.0564 0.5425 0.2736
C5A C 0.9711(3) 1.08381(18) 0.89171(13)
H6A H 0.9306 1.0379 0.9038
C6A C 1.0802(3) 1.18797(18) 0.88919(13)
H7A H 1.1331 1.2295 0.9012
C7_2 C 1.4395(3) 0.97360(16) 0.38520(12)
C8_2 C 1.5584(3) 1.00416(15) 0.40525(12)
H8_2 H 1.6365 0.9829 0.3920
C9_2 C 1.5618(3) 1.06578(16) 0.44469(11)
C10_2 C 1.4439(3) 1.09687(16) 0.46466(12)
H9_2 H 1.4452 1.1395 0.4900
C11_2 C 1.3246(3) 1.06471(16) 0.44702(12)
C12_2 C 1.3234(3) 1.00368(16) 0.40704(12)
H10_2 H 1.2439 0.9825 0.3946
C13_2 C 1.4320(3) 0.91600(17) 0.33572(13)
C14_2 C 1.6904(3) 1.09920(16) 0.46557(12)
C15_2 C 1.1984(3) 1.09814(17) 0.46999(13)
C16A C 0.9031(3) 1.0781(2) 0.78537(14)
H11A H 0.8668 1.1192 0.7608
H12A H 0.8317 1.0444 0.7972
H13A H 1.0488 0.9973 0.7768
N1A N -0.3541(3) 0.74067(14) 0.23977(11)
N1A_2 N 0.6459(3) 0.74067(14) 0.23977(11)
N2A N -0.2319(4) 0.6455(2) 0.20211(16)
N3A N -0.1914(4) 0.66291(18) 0.25701(13)
N4A N 1.0436(2) 1.12943(14) 0.92580(10)
N4_2 N 1.9564(2) 1.12943(14) 0.57420(10)
N5A N 0.9643(3) 1.11294(15) 0.83759(11)
N6A N 1.0343(3) 1.18088(16) 0.83520(11)
O1_2 O 1.5385(2) 0.87741(11) 0.32351(9)
O1A O 0.4615(2) 0.87741(11) 0.17649(9)
O2_2 O 1.3313(2) 0.90955(13) 0.30607(10)
O3_2 O 1.79389(18) 1.06330(11) 0.45068(8)
O4_2 O 1.69298(19) 1.16002(11) 0.49657(9)
O5_2 O 1.2009(2) 1.15370(12) 0.50548(9)
O6_2 O 1.09097(18) 1.06760(12) 0.45073(9)
O6_3 O 2.09097(18) 1.06760(12) 0.45073(9)
O7_2 O 1.94000(18) 1.22709(11) 0.44738(8)
H14_2 H 2.0171 1.2382 0.4373
H15_2 H 1.9039 1.2652 0.4653
O8 O 0.3383(2) 0.21731(12) 0.59560(9)
H16 H 0.3628 0.1801 0.6182
H17 H 0.2932 0.1995 0.5668
loop_
_geom_bond_atom_site_label_1
_geom_bond_atom_site_label_2
_geom_bond_site_symmetry_1
_geom_bond_site_symmetry_2
Zn1 N4 1_555 1_555
Zn2 N1 1_555 1_555
C1 H1 1_555 1_555
C2 H2 1_555 1_555
C3 H3 1_555 1_555
H4 C3 1_555 1_555
C4 C3 1_555 1_555
H5 C4 1_555 1_555
C5 H6 1_555 1_555
C6 H7 1_555 1_555
C7 C8 1_555 1_555
C8 H8 1_555 1_555
C9 C8 1_555 1_555
C10 C9 1_555 1_555
H9 C10 1_555 1_555
C11 C10 1_555 1_555
C12 C7 1_555 1_555
H10 C12 1_555 1_555
C13 C7 1_555 1_555
C14 C9 1_555 1_555
C15 C11 1_555 1_555
C16 H11 1_555 1_555
H12 C16 1_555 1_555
C17 C16 1_555 1_555
H13 C17 1_555 1_555
N1 C1 1_555 1_555
N2 C2 1_555 1_555
N3 C1 1_555 1_555
N4 C5 1_555 1_555
N5 C5 1_555 1_555
N6 C6 1_555 1_555
O1 Zn2 1_555 1_555
O2 C13 1_555 1_555
O3 Zn1 1_555 1_555
O4 C14 1_555 1_555
O5 C15 1_555 1_555
O6 C15 1_555 1_555
O7 Zn1 1_555 1_555
H14 O7 1_555 1_555
H15 O7 1_555 1_555
O8 H16 1_555 1_555
H17 O8 1_555 1_555
Zn1_2 N4_2 1_555 1_555
Zn1_3 O6 1_555 1_555
Zn1A N4A 1_555 1_555
Zn2_2 N1A 1_555 1_555
Zn2_3 O1_2 1_555 1_555
C1A H1A 1_555 1_555
C2A H2A 1_555 1_555
C3A C4 1_555 1_555
H3A C3A 1_555 1_555
H4A C3A 1_555 1_555
H5A C4 1_555 1_555
C5A H6A 1_555 1_555
C6A H7A 1_555 1_555
C7_2 C8_2 1_555 1_555
C8_2 H8_2 1_555 1_555
C9_2 C8_2 1_555 1_555
C10_2 C9_2 1_555 1_555
H9_2 C10_2 1_555 1_555
C11_2 C10_2 1_555 1_555
C12_2 C7_2 1_555 1_555
H10_2 C12_2 1_555 1_555
C13_2 C7_2 1_555 1_555
C14_2 C9_2 1_555 1_555
C15_2 C11_2 1_555 1_555
C16A C17 1_555 1_555
H11A C16A 1_555 1_555
H12A C16A 1_555 1_555
H13A C17 1_555 1_555
N1A C1A 1_555 1_555
N1A_2 Zn2 1_555 1_555
N2A C2A 1_555 1_555
N3A C1A 1_555 1_555
N4A C5A 1_555 1_555
N5A C5A 1_555 1_555
N6A C6A 1_555 1_555
O1_2 C13_2 1_555 1_555
O1A Zn2 1_555 1_555
O2_2 C13_2 1_555 1_555
O3_2 Zn1_2 1_555 1_555
O4_2 C14_2 1_555 1_555
O5_2 C15_2 1_555 1_555
O6_2 Zn1 1_555 1_555
O6_3 Zn1_2 1_555 1_555
O7_2 Zn1_2 1_555 1_555
H14_2 O7_2 1_555 1_555
H15_2 O7_2 1_555 1_555
C2 N1 1_555 1_555
C3 N3 1_555 1_555
C6 N4 1_555 1_555
C11 C12 1_555 1_555
C13 O1 1_555 1_555
C14 O3 1_555 1_555
C16 N5 1_555 1_555
N2 N3 1_555 1_555
N5 N6 1_555 1_555
C2A N1A 1_555 1_555
C3A N3A 1_555 1_555
C6A N4A 1_555 1_555
C11_2 C12_2 1_555 1_555
C14_2 O3_2 1_555 1_555
C15_2 O6_2 1_555 1_555
C16A N5A 1_555 1_555
N2A N3A 1_555 1_555
N5A N6A 1_555 1_555

#END
