
#######################################################################
#
#                 Cambridge Crystallographic Data Centre
#                                CCDC 
#
#######################################################################
#
# If this CIF has been generated from an entry in the Cambridge 
# Structural Database, then it will include bibliographic, chemical, 
# crystal, experimental, refinement or atomic coordinate data resulting 
# from the CCDC's data processing and validation procedures.
#
#######################################################################

data_ZAXQOG
_symmetry_cell_setting           tetragonal
_symmetry_space_group_name_H-M   'P 42/n c m'
_symmetry_Int_Tables_number      138
_space_group_name_Hall           '-P 4ac 2ac'
loop_
_symmetry_equiv_pos_site_id
_symmetry_equiv_pos_as_xyz
1 x,y,z
2 1/2-y,x,1/2+z
3 1/2-x,1/2-y,z
4 y,1/2-x,1/2+z
5 1/2+x,-y,1/2-z
6 1/2+y,1/2+x,-z
7 -x,1/2+y,1/2-z
8 -y,-x,-z
9 -x,-y,-z
10 1/2+y,-x,1/2-z
11 1/2+x,1/2+y,-z
12 -y,1/2+x,1/2-z
13 1/2-x,y,1/2+z
14 1/2-y,1/2-x,z
15 x,1/2-y,1/2+z
16 y,x,z
_cell_length_a                   14.537(2)
_cell_length_b                   14.537(2)
_cell_length_c                   20.195(3)
_cell_angle_alpha                90
_cell_angle_beta                 90
_cell_angle_gamma                90
_cell_volume                     4267.7
loop_
_atom_site_label
_atom_site_type_symbol
_atom_site_fract_x
_atom_site_fract_y
_atom_site_fract_z
Cu1 Cu 0.5000 0.5000 0.0000
Cu2 Cu 0.2500 0.7500 0.2500
N1 N 0.3002(3) 0.6503(3) 0.18740(18)
C1 C 0.2597(4) 0.5697(4) 0.1818(3)
H1 H 0.2086 0.5567 0.2096
C2 C 0.2887(4) 0.5012(4) 0.1362(3)
H2 H 0.2567 0.4442 0.1349
N2 N 0.3584(3) 0.5140(3) 0.0956(2)
N3 N 0.4721(3) 0.6096(3) 0.0578(2)
C3 C 0.5171(4) 0.6889(4) 0.0587(3)
H3 H 0.5664 0.6980 0.0285
C4 C 0.4942(4) 0.7597(4) 0.1028(3)
H4 H 0.5289 0.8150 0.1032
C5 C 0.4221(4) 0.7490(3) 0.1452(2)
H5 H 0.4049 0.7973 0.1743
C6 C 0.3739(3) 0.6660(3) 0.1451(2)
C7 C 0.4005(3) 0.5964(3) 0.1004(2)
Cu1B Cu 0.0000 1.0000 0.0000
Cu2D Cu 0.7500 0.2500 0.2500
Cu2E Cu 0.2500 0.7500 -0.2500
N1B N 0.1998(3) 0.8497(3) 0.18740(18)
N1G N 0.3497(3) 0.6998(3) -0.18740(18)
N1O N 0.6503(3) 0.3002(3) 0.18740(18)
N1I N 0.1503(3) 0.6998(3) 0.31260(18)
N1K N 0.3497(3) 0.8002(3) 0.31260(18)
C1B C 0.2403(4) 0.9303(4) 0.1818(3)
C1G C 0.4303(4) 0.7403(4) -0.1818(3)
C1O C 0.5697(4) 0.2597(4) 0.1818(3)
H1B H 0.2914 0.9433 0.2096
H1G H 0.4433 0.7914 -0.2096
H1O H 0.5567 0.2086 0.2096
C2B C 0.2113(4) 0.9988(4) 0.1362(3)
C2G C 0.4988(4) 0.7113(4) -0.1362(3)
C2O C 0.5012(4) 0.2887(4) 0.1362(3)
H2B H 0.2433 1.0558 0.1349
H2G H 0.5558 0.7433 -0.1349
H2O H 0.4442 0.2567 0.1349
N2B N 0.1416(3) 0.9860(3) 0.0956(2)
N2G N 0.4860(3) 0.6416(3) -0.0956(2)
N2O N 0.5140(3) 0.3584(3) 0.0956(2)
N3B N 0.0279(3) 0.8904(3) 0.0578(2)
N3G N 0.3904(3) 0.5279(3) -0.0578(2)
N3O N 0.6096(3) 0.4721(3) 0.0578(2)
N3H N 0.5279(3) 0.3904(3) -0.0578(2)
C3B C -0.0171(4) 0.8111(4) 0.0587(3)
C3G C 0.3111(4) 0.4829(4) -0.0587(3)
C3O C 0.6889(4) 0.5171(4) 0.0587(3)
H3B H -0.0664 0.8020 0.0285
H3G H 0.3020 0.4336 -0.0285
H3O H 0.6980 0.5664 0.0285
C4B C 0.0058(4) 0.7403(4) 0.1028(3)
C4G C 0.2403(4) 0.5058(4) -0.1028(3)
C4O C 0.7597(4) 0.4942(4) 0.1028(3)
H4B H -0.0289 0.6850 0.1032
H4G H 0.1850 0.4711 -0.1032
H4O H 0.8150 0.5289 0.1032
C5B C 0.0779(4) 0.7510(3) 0.1452(2)
C5G C 0.2510(3) 0.5779(4) -0.1452(2)
C5O C 0.7490(3) 0.4221(4) 0.1452(2)
H5B H 0.0951 0.7027 0.1743
H5G H 0.2027 0.5951 -0.1743
H5O H 0.7973 0.4049 0.1743
C6B C 0.1261(3) 0.8340(3) 0.1451(2)
C6G C 0.3340(3) 0.6261(3) -0.1451(2)
C6O C 0.6660(3) 0.3739(3) 0.1451(2)
C7B C 0.0995(3) 0.9036(3) 0.1004(2)
C7G C 0.4036(3) 0.5995(3) -0.1004(2)
C7O C 0.5964(3) 0.4005(3) 0.1004(2)
B1 B 0.2500 0.2500 0.0101(15)
F1 F 0.3043(9) 0.1957(9) -0.0250(9)
F2 F 0.3075(4) 0.3075(4) 0.0487(5)
F1B F 0.1957(9) 0.3043(9) -0.0250(9)
F2B F 0.1925(4) 0.1925(4) 0.0487(5)
B2 B 0.5241(9) 0.5241(9) 0.2746(8)
F3 F 0.5491(9) 0.5491(9) 0.2017(8)
F4 F 0.5801(4) 0.5801(4) 0.3068(5)
F5 F 0.4363(4) 0.5467(4) 0.2705(4)
F5O F 0.5467(4) 0.4363(4) 0.2705(4)
B3 B 0.2500 0.7500 0.0000
F6 F 0.2473(10) 0.6731(10) 0.0337(7)
F6B F 0.2527(10) 0.8269(10) 0.0337(7)
F6E F 0.1731(10) 0.7473(10) -0.0337(7)
F6G F 0.3269(10) 0.7527(10) -0.0337(7)
loop_
_geom_bond_atom_site_label_1
_geom_bond_atom_site_label_2
_geom_bond_site_symmetry_1
_geom_bond_site_symmetry_2
Cu1 N3 1_555 1_555
Cu2 N1 1_555 1_555
N1 C1 1_555 1_555
C1 H1 1_555 1_555
C2 C1 1_555 1_555
H2 C2 1_555 1_555
N2 C2 1_555 1_555
N3 C3 1_555 1_555
C3 H3 1_555 1_555
C4 C3 1_555 1_555
H4 C4 1_555 1_555
C5 C4 1_555 1_555
H5 C5 1_555 1_555
C6 N1 1_555 1_555
C7 N2 1_555 1_555
B1 F1 1_555 1_555
F2 B1 1_555 1_555
B2 F3 1_555 1_555
F4 B2 1_555 1_555
F5 B2 1_555 1_555
B3 F6 1_555 1_555
Cu1B N3B 1_555 1_555
Cu2D N1O 1_555 1_555
Cu2E N1G 1_555 1_555
N1B Cu2 1_555 1_555
N1G C1G 1_555 1_555
N1O C1O 1_555 1_555
N1I Cu2 1_555 1_555
N1K Cu2 1_555 1_555
C1B N1B 1_555 1_555
C1G H1G 1_555 1_555
C1O H1O 1_555 1_555
H1B C1B 1_555 1_555
C2B C1B 1_555 1_555
C2G C1G 1_555 1_555
C2O C1O 1_555 1_555
H2B C2B 1_555 1_555
H2G C2G 1_555 1_555
H2O C2O 1_555 1_555
N2B C2B 1_555 1_555
N2G C2G 1_555 1_555
N2O C2O 1_555 1_555
N3B C3B 1_555 1_555
N3G Cu1 1_555 1_555
N3O Cu1 1_555 1_555
N3H Cu1 1_555 1_555
C3B H3B 1_555 1_555
C3G N3G 1_555 1_555
C3O N3O 1_555 1_555
H3G C3G 1_555 1_555
H3O C3O 1_555 1_555
C4B C3B 1_555 1_555
C4G C3G 1_555 1_555
C4O C3O 1_555 1_555
H4B C4B 1_555 1_555
H4G C4G 1_555 1_555
H4O C4O 1_555 1_555
C5B C4B 1_555 1_555
C5G C4G 1_555 1_555
C5O C4O 1_555 1_555
H5B C5B 1_555 1_555
H5G C5G 1_555 1_555
H5O C5O 1_555 1_555
C6B N1B 1_555 1_555
C6G N1G 1_555 1_555
C6O N1O 1_555 1_555
C7B N2B 1_555 1_555
C7G N2G 1_555 1_555
C7O N2O 1_555 1_555
F1B B1 1_555 1_555
F2B B1 1_555 1_555
F5O B2 1_555 1_555
F6B B3 1_555 1_555
F6E B3 1_555 1_555
F6G B3 1_555 1_555
N3 C7 1_555 1_555
C5 C6 1_555 1_555
C6 C7 1_555 1_555
N3B C7B 1_555 1_555
N3G C7G 1_555 1_555
N3O C7O 1_555 1_555
C5B C6B 1_555 1_555
C5G C6G 1_555 1_555
C5O C6O 1_555 1_555
C6B C7B 1_555 1_555
C6G C7G 1_555 1_555
C6O C7O 1_555 1_555

#END
