
#######################################################################
#
#                 Cambridge Crystallographic Data Centre
#                                CCDC 
#
#######################################################################
#
# If this CIF has been generated from an entry in the Cambridge 
# Structural Database, then it will include bibliographic, chemical, 
# crystal, experimental, refinement or atomic coordinate data resulting 
# from the CCDC's data processing and validation procedures.
#
#######################################################################

data_ZAXTUP
_symmetry_cell_setting           monoclinic
_symmetry_space_group_name_H-M   'C 2/c'
_symmetry_Int_Tables_number      15
_space_group_name_Hall           '-C 2yn'
loop_
_symmetry_equiv_pos_site_id
_symmetry_equiv_pos_as_xyz
1 x,y,z
2 1/2+x,1/2+y,z
3 -x,y,1/2-z
4 1/2-x,1/2+y,1/2-z
5 -x,-y,-z
6 1/2-x,1/2-y,-z
7 x,-y,1/2+z
8 1/2+x,1/2-y,1/2+z
_cell_length_a                   18.4080(25)
_cell_length_b                   9.2193(13)
_cell_length_c                   12.2629(17)
_cell_angle_alpha                90
_cell_angle_beta                 94.1776(18)
_cell_angle_gamma                90
_cell_volume                     2075.59
loop_
_atom_site_label
_atom_site_type_symbol
_atom_site_fract_x
_atom_site_fract_y
_atom_site_fract_z
Ce1 Ce 0.5000 0.129237(11) 0.2500
O1 O 0.56222(6) -0.08802(12) 0.32321(9)
O2 O 0.43170(6) 0.21654(12) 0.07843(8)
O3 O 0.37731(6) 0.21987(12) 0.28327(9)
C1 C 0.59232(9) -0.30842(17) 0.41341(13)
H1 H 0.6339 -0.2518 0.4442
H2 H 0.6098 -0.3984 0.3818
H3 H 0.5602 -0.3317 0.4713
C2 C 0.55086(8) -0.22142(15) 0.32573(12)
C3 C 0.5000 -0.2939(2) 0.2500
C4 C 0.5000 -0.4476(2) 0.2500
C5 C 0.36557(9) 0.34021(18) -0.06591(12)
H4 H 0.3913 0.4320 -0.0749
H5 H 0.3135 0.3539 -0.0858
H6 H 0.3849 0.2663 -0.1134
C6 C 0.37629(8) 0.29174(15) 0.05144(11)
C7 C 0.32407(8) 0.33475(16) 0.12587(12)
C8 C 0.32649(8) 0.29244(16) 0.23813(12)
C9 C 0.26411(9) 0.33370(19) 0.30506(13)
H7 H 0.2210 0.2766 0.2810
H8 H 0.2533 0.4372 0.2952
H9 H 0.2775 0.3142 0.3825
C10 C 0.26482(8) 0.42514(16) 0.08554(12)
N1 N 0.5000 -0.5731(2) 0.2500
N2 N 0.21755(7) 0.49946(16) 0.05516(11)
O4 O 0.43866(6) 0.02061(13) 0.41475(9)
H10 H 0.3978(11) 0.036(3) 0.422(2)
H11 H 0.4469(14) -0.043(2) 0.4556(18)
Ce1_2 Ce 0.5000 -0.870763(11) 0.2500
O1B O 0.43778(6) -0.08802(12) 0.17679(9)
O2B O 0.56830(6) 0.21654(12) 0.42157(8)
O3B O 0.62269(6) 0.21987(12) 0.21673(9)
C1B C 0.40768(9) -0.30842(17) 0.08659(13)
H1B H 0.3661 -0.2518 0.0558
H2B H 0.3902 -0.3984 0.1182
H3B H 0.4398 -0.3317 0.0287
C2B C 0.44914(8) -0.22142(15) 0.17427(12)
C5B C 0.63443(9) 0.34021(18) 0.56591(12)
H4B H 0.6087 0.4320 0.5749
H5B H 0.6865 0.3539 0.5858
H6B H 0.6151 0.2663 0.6134
C6B C 0.62371(8) 0.29174(15) 0.44856(11)
C7B C 0.67593(8) 0.33475(16) 0.37413(12)
C8B C 0.67351(8) 0.29244(16) 0.26187(12)
C9B C 0.73589(9) 0.33370(19) 0.19494(13)
H7B H 0.7790 0.2766 0.2190
H8B H 0.7467 0.4372 0.2048
H9B H 0.7225 0.3142 0.1175
C10B C 0.73518(8) 0.42514(16) 0.41446(12)
N1_2 N 0.5000 0.4269(2) 0.2500
N2B N 0.78245(7) 0.49946(16) 0.44484(11)
O4B O 0.56134(6) 0.02061(13) 0.08525(9)
H10B H 0.6022(11) 0.036(3) 0.078(2)
H11B H 0.5531(14) -0.043(2) 0.0444(18)
loop_
_geom_bond_atom_site_label_1
_geom_bond_atom_site_label_2
_geom_bond_site_symmetry_1
_geom_bond_site_symmetry_2
Ce1 O1 1_555 1_555
O1 C2 1_555 1_555
O2 Ce1 1_555 1_555
O3 Ce1 1_555 1_555
C1 H1 1_555 1_555
H2 C1 1_555 1_555
H3 C1 1_555 1_555
C2 C1 1_555 1_555
C3 C2 1_555 1_555
C4 C3 1_555 1_555
C5 H4 1_555 1_555
H5 C5 1_555 1_555
H6 C5 1_555 1_555
C6 O2 1_555 1_555
C7 C6 1_555 1_555
C8 O3 1_555 1_555
C9 C8 1_555 1_555
H7 C9 1_555 1_555
H8 C9 1_555 1_555
H9 C9 1_555 1_555
C10 C7 1_555 1_555
N1 C4 1_555 1_555
N2 C10 1_555 1_555
O4 Ce1 1_555 1_555
H10 O4 1_555 1_555
H11 O4 1_555 1_555
Ce1_2 N1 1_555 1_555
O1B Ce1 1_555 1_555
O2B Ce1 1_555 1_555
O3B Ce1 1_555 1_555
C1B H1B 1_555 1_555
H2B C1B 1_555 1_555
H3B C1B 1_555 1_555
C2B C3 1_555 1_555
C5B H4B 1_555 1_555
H5B C5B 1_555 1_555
H6B C5B 1_555 1_555
C6B O2B 1_555 1_555
C7B C6B 1_555 1_555
C8B O3B 1_555 1_555
C9B C8B 1_555 1_555
H7B C9B 1_555 1_555
H8B C9B 1_555 1_555
H9B C9B 1_555 1_555
C10B C7B 1_555 1_555
N1_2 Ce1 1_555 1_555
N2B C10B 1_555 1_555
O4B Ce1 1_555 1_555
H10B O4B 1_555 1_555
H11B O4B 1_555 1_555
C5 C6 1_555 1_555
C7 C8 1_555 1_555
O1B C2B 1_555 1_555
C1B C2B 1_555 1_555
C5B C6B 1_555 1_555
C7B C8B 1_555 1_555

#END
