
#######################################################################
#
#                 Cambridge Crystallographic Data Centre
#                                CCDC 
#
#######################################################################
#
# If this CIF has been generated from an entry in the Cambridge 
# Structural Database, then it will include bibliographic, chemical, 
# crystal, experimental, refinement or atomic coordinate data resulting 
# from the CCDC's data processing and validation procedures.
#
#######################################################################

data_ZAXWOM
_symmetry_cell_setting           monoclinic
_symmetry_space_group_name_H-M   'P 21/c'
_symmetry_Int_Tables_number      14
_space_group_name_Hall           '-P 2ybc'
loop_
_symmetry_equiv_pos_site_id
_symmetry_equiv_pos_as_xyz
1 x,y,z
2 -x,1/2+y,1/2-z
3 -x,-y,-z
4 x,1/2-y,1/2+z
_cell_length_a                   7.8902(3)
_cell_length_b                   21.1723(9)
_cell_length_c                   16.0292(7)
_cell_angle_alpha                90
_cell_angle_beta                 90.1973(6)
_cell_angle_gamma                90
_cell_volume                     2677.72
loop_
_atom_site_label
_atom_site_type_symbol
_atom_site_fract_x
_atom_site_fract_y
_atom_site_fract_z
Ag1 Ag -0.04189(2) -0.002000(8) 0.110720(11)
Eu1 Eu 0.483680(13) 0.188100(5) 0.502490(6)
O1 O 0.5906(2) 0.20981(8) 0.36675(10)
O2 O 0.7102(2) 0.11512(8) 0.46810(10)
O3 O 0.2529(2) 0.20653(8) 0.40650(10)
O4 O 0.3699(2) 0.08960(7) 0.45641(10)
O5 O 0.2260(2) 0.17960(8) 0.57711(10)
O6 O 0.53860(19) 0.15274(7) 0.64124(10)
O7 O 0.4223(2) 0.29669(7) 0.52027(10)
O8 O 0.73772(19) 0.24339(7) 0.53246(10)
C1 C 0.5826(4) 0.19437(13) 0.22102(16)
H1 H 0.4632 0.1875 0.2066
H2 H 0.6086 0.2395 0.2175
H3 H 0.6546 0.1711 0.1820
C2 C 0.6155(3) 0.17138(11) 0.30841(14)
C3 C 0.6773(3) 0.10894(11) 0.32171(14)
C4 C 0.7341(3) 0.08613(11) 0.40136(14)
C5 C 0.8269(3) 0.02411(12) 0.40608(16)
H4 H 0.7495 -0.0088 0.4257
H5 H 0.8692 0.0129 0.3506
H6 H 0.9225 0.0279 0.4450
C6 C 0.6850(3) 0.06803(12) 0.25117(15)
C7 C 0.0689(3) 0.21219(12) 0.29050(17)
H7 H -0.0316 0.1864 0.2790
H8 H 0.0345 0.2518 0.3170
H9 H 0.1274 0.2214 0.2380
C8 C 0.1866(3) 0.17671(11) 0.34795(14)
C9 C 0.2180(3) 0.11107(11) 0.33273(15)
C10 C 0.3065(3) 0.07041(11) 0.38930(15)
C11 C 0.3250(4) 0.00139(11) 0.36867(18)
H10 H 0.2129 -0.0168 0.3578
H11 H 0.3959 -0.0033 0.3190
H12 H 0.3781 -0.0206 0.4158
C12 C 0.1537(3) 0.08366(12) 0.25799(16)
C13 C -0.0186(3) 0.14681(12) 0.64908(16)
H13 H -0.0663 0.1389 0.5935
H14 H -0.0425 0.1107 0.6854
H15 H -0.0698 0.1850 0.6727
C14 C 0.1701(3) 0.15574(10) 0.64237(14)
C15 C 0.2781(3) 0.13693(10) 0.71002(14)
C16 C 0.4585(3) 0.13851(10) 0.70603(14)
C17 C 0.5581(3) 0.12373(12) 0.78438(14)
H16 H 0.5474 0.1588 0.8238
H17 H 0.5138 0.0851 0.8098
H18 H 0.6778 0.1177 0.7702
C18 C 0.1983(3) 0.11573(11) 0.78404(15)
C19 C 0.4013(3) 0.40833(11) 0.51696(16)
H19 H 0.4389 0.4339 0.5645
H20 H 0.4190 0.4320 0.4652
H21 H 0.2805 0.3985 0.5229
C20 C 0.5015(3) 0.34793(11) 0.51425(13)
C21 C 0.6817(3) 0.35096(10) 0.50758(13)
C22 C 0.7923(3) 0.29805(10) 0.51977(13)
C23 C 0.9805(3) 0.30861(12) 0.52128(17)
H22 H 1.0386 0.2679 0.5271
H23 H 1.0155 0.3289 0.4692
H24 H 1.0101 0.3359 0.5685
C24 C 0.7589(3) 0.41066(10) 0.49680(13)
N1 N 0.6839(3) 0.03546(11) 0.19371(14)
N2 N 0.1052(3) 0.06098(11) 0.19742(15)
N3 N 0.1287(3) 0.09923(10) 0.84311(13)
N4 N 0.8270(2) 0.45841(9) 0.48827(12)
Ag1A Ag 1.04189(2) 0.498000(8) 0.389280(11)
Ag1C Ag 0.95811(2) 0.502000(8) 0.610720(11)
Ag1B Ag 0.04189(2) 0.002000(8) 0.889280(11)
N3B N -0.1287(3) -0.09923(10) 0.15689(13)
N4A N 0.1730(2) -0.04159(9) 0.01173(12)
N4C N -0.1730(2) 0.04159(9) -0.01173(12)
loop_
_geom_bond_atom_site_label_1
_geom_bond_atom_site_label_2
_geom_bond_site_symmetry_1
_geom_bond_site_symmetry_2
Ag1 N2 1_555 1_555
Eu1 O1 1_555 1_555
O1 C2 1_555 1_555
O2 Eu1 1_555 1_555
O3 Eu1 1_555 1_555
O4 Eu1 1_555 1_555
O5 Eu1 1_555 1_555
O6 Eu1 1_555 1_555
O7 Eu1 1_555 1_555
O8 Eu1 1_555 1_555
C1 H1 1_555 1_555
H2 C1 1_555 1_555
H3 C1 1_555 1_555
C2 C1 1_555 1_555
C3 C2 1_555 1_555
C4 O2 1_555 1_555
C5 C4 1_555 1_555
H4 C5 1_555 1_555
H5 C5 1_555 1_555
H6 C5 1_555 1_555
C6 C3 1_555 1_555
C7 H7 1_555 1_555
H8 C7 1_555 1_555
H9 C7 1_555 1_555
C8 O3 1_555 1_555
C9 C8 1_555 1_555
C10 O4 1_555 1_555
C11 C10 1_555 1_555
H10 C11 1_555 1_555
H11 C11 1_555 1_555
H12 C11 1_555 1_555
C12 C9 1_555 1_555
C13 H13 1_555 1_555
H14 C13 1_555 1_555
H15 C13 1_555 1_555
C14 O5 1_555 1_555
C15 C14 1_555 1_555
C16 O6 1_555 1_555
C17 C16 1_555 1_555
H16 C17 1_555 1_555
H17 C17 1_555 1_555
H18 C17 1_555 1_555
C18 C15 1_555 1_555
C19 H19 1_555 1_555
H20 C19 1_555 1_555
H21 C19 1_555 1_555
C20 O7 1_555 1_555
C21 C20 1_555 1_555
C22 O8 1_555 1_555
C23 C22 1_555 1_555
H22 C23 1_555 1_555
H23 C23 1_555 1_555
H24 C23 1_555 1_555
C24 C21 1_555 1_555
N1 C6 1_555 1_555
N2 C12 1_555 1_555
N3 C18 1_555 1_555
N4 C24 1_555 1_555
Ag1A N4 1_555 1_555
Ag1C N4 1_555 1_555
Ag1B N3 1_555 1_555
N3B Ag1 1_555 1_555
N4A Ag1 1_555 1_555
N4C Ag1 1_555 1_555
C3 C4 1_555 1_555
C7 C8 1_555 1_555
C9 C10 1_555 1_555
C13 C14 1_555 1_555
C15 C16 1_555 1_555
C19 C20 1_555 1_555
C21 C22 1_555 1_555

#END
