
#######################################################################
#
#                 Cambridge Crystallographic Data Centre
#                                CCDC 
#
#######################################################################
#
# If this CIF has been generated from an entry in the Cambridge 
# Structural Database, then it will include bibliographic, chemical, 
# crystal, experimental, refinement or atomic coordinate data resulting 
# from the CCDC's data processing and validation procedures.
#
#######################################################################

data_ZAYJAM
_symmetry_cell_setting           monoclinic
_symmetry_space_group_name_H-M   'P 21/c'
_symmetry_Int_Tables_number      14
_space_group_name_Hall           '-P 2ybc'
loop_
_symmetry_equiv_pos_site_id
_symmetry_equiv_pos_as_xyz
1 x,y,z
2 -x,1/2+y,1/2-z
3 -x,-y,-z
4 x,1/2-y,1/2+z
_cell_length_a                   17.9673(7)
_cell_length_b                   20.9503(8)
_cell_length_c                   13.7307(5)
_cell_angle_alpha                90
_cell_angle_beta                 109.4960(10)
_cell_angle_gamma                90
_cell_volume                     4872.18
loop_
_atom_site_label
_atom_site_type_symbol
_atom_site_fract_x
_atom_site_fract_y
_atom_site_fract_z
Zn1 Zn -0.35763(2) -0.235410(17) 0.40126(3)
O1 O -0.43534(13) -0.19227(10) -0.08891(16)
O2 O -0.43575(15) -0.13132(12) -0.2228(2)
O3 O -0.90009(17) -0.11889(14) -0.1113(2)
O4 O -0.92437(17) -0.16062(15) -0.2675(2)
O5 O -0.47530(12) -0.10109(10) 0.04156(16)
O6 O -0.59989(14) -0.02291(11) 0.04188(19)
O7 O -0.65366(14) -0.23840(12) 0.10761(19)
O8 O -0.78902(13) -0.16860(12) 0.04841(18)
N1 N -0.45636(15) -0.19730(13) 0.2638(2)
N2 N -0.56332(15) -0.17290(13) 0.0691(2)
N3 N -0.7348(2) -0.02059(18) 0.1842(3)
N4 N -0.69941(16) -0.09318(13) 0.0389(2)
O9 O 0.15326(18) -0.42118(14) 0.8396(2)
O10 O 0.21876(15) -0.38098(13) 0.9953(2)
O11 O -0.29285(19) -0.40914(14) 0.9954(2)
O12 O -0.28004(13) -0.33391(10) 0.88767(17)
O13 O 0.05038(14) -0.33347(12) 0.71982(17)
O14 O -0.06871(14) -0.25124(12) 0.71715(19)
O15 O -0.15411(13) -0.47607(11) 0.67466(18)
O16 O -0.25903(12) -0.39827(10) 0.72171(16)
N5 N -0.04884(18) -0.43333(15) 0.5055(2)
N6 N -0.04731(15) -0.40818(13) 0.7039(2)
N7 N -0.26325(16) -0.27677(13) 0.5387(2)
N8 N -0.16398(15) -0.32306(12) 0.7263(2)
C1 C 0.09390(19) -0.33799(15) 0.9064(3)
C2 C 0.04055(19) -0.31666(16) 0.8134(2)
C3 C -0.01939(19) -0.27503(16) 0.8123(3)
C4 C -0.0276(2) -0.25435(17) 0.9037(3)
H1 H -0.0686 -0.2254 0.9026
C5 C 0.0243(2) -0.27610(17) 0.9968(3)
H2 H 0.0184 -0.2628 1.0599
C6 C 0.0848(2) -0.31706(17) 0.9979(3)
H3 H 0.1208 -0.3312 1.0622
C7 C -0.20752(18) -0.42969(15) 0.9004(2)
C8 C -0.15681(19) -0.46940(16) 0.9746(3)
H4 H -0.1603 -0.4706 1.0421
C9 C -0.10156(19) -0.50707(17) 0.9521(3)
H5 H -0.0662 -0.5326 1.0046
C10 C -0.09761(19) -0.50767(16) 0.8533(3)
H6 H -0.0600 -0.5337 0.8372
C11 C -0.14891(18) -0.46999(15) 0.7785(3)
C12 C -0.20281(17) -0.43046(14) 0.8016(2)
C13 C 0.00136(19) -0.37944(16) 0.6638(3)
C14 C 0.0028(2) -0.39225(17) 0.5654(3)
H7 H 0.0404 -0.3718 0.5410
C15 C -0.1010(2) -0.46096(17) 0.5421(3)
H8 H -0.1395 -0.4895 0.5000
C16 C -0.09851(18) -0.44772(15) 0.6419(3)
C17 C -0.14242(19) -0.27673(16) 0.6762(3)
C18 C -0.1912(2) -0.25244(17) 0.5824(3)
H9 H -0.1733 -0.2187 0.5496
C19 C -0.28561(19) -0.32520(16) 0.5857(2)
H10 H -0.3362 -0.3441 0.5558
C20 C -0.23407(18) -0.34743(15) 0.6786(2)
C21 C 0.1578(2) -0.38408(17) 0.9085(3)
C22 C -0.26530(19) -0.38773(16) 0.9293(3)
C23 C -0.5302(2) -0.10875(16) -0.1442(3)
C24 C -0.53589(19) -0.08711(15) -0.0516(2)
C25 C -0.5987(2) -0.04948(15) -0.0510(3)
C26 C -0.6589(2) -0.03621(19) -0.1416(3)
H11 H -0.7027 -0.0111 -0.1405
C27 C -0.6554(3) -0.0594(2) -0.2336(3)
H12 H -0.6974 -0.0513 -0.2961
C28 C -0.5907(3) -0.0946(2) -0.2351(3)
H13 H -0.5877 -0.1092 -0.2992
C29 C -0.8133(2) -0.19793(17) -0.1322(3)
C30 C -0.7896(2) -0.23458(18) -0.2016(3)
H14 H -0.8209 -0.2339 -0.2727
C31 C -0.7233(2) -0.27121(19) -0.1709(3)
H15 H -0.7088 -0.2956 -0.2201
C32 C -0.6772(2) -0.27262(18) -0.0677(3)
H16 H -0.6309 -0.2981 -0.0451
C33 C -0.6995(2) -0.23642(16) 0.0023(3)
C34 C -0.7672(2) -0.20036(16) -0.0275(3)
C35 C -0.49369(18) -0.14462(15) 0.1032(2)
C36 C -0.43824(18) -0.15740(15) 0.1995(2)
H17 H -0.3877 -0.1378 0.2193
C37 C -0.52894(19) -0.22301(16) 0.2338(3)
H18 H -0.5445 -0.2496 0.2796
C38 C -0.58099(18) -0.21050(15) 0.1357(3)
C39 C -0.6612(2) -0.03997(17) 0.0748(3)
C40 C -0.6791(2) -0.0022(2) 0.1458(3)
H19 H -0.6518 0.0369 0.1675
C41 C -0.7709(2) -0.07612(19) 0.1534(3)
H20 H -0.8090 -0.0913 0.1820
C42 C -0.75253(19) -0.11144(17) 0.0798(2)
C43 C -0.46080(19) -0.14665(16) -0.1513(2)
C44 C -0.8843(2) -0.15816(18) -0.1771(3)
O17 O -0.38760(16) -0.18210(13) 0.5092(2)
H21 H -0.3669 -0.1460 0.5105
O18 O -0.32537(14) -0.28767(12) 0.2923(2)
H22 H -0.3587 -0.3170 0.2842
C46 C -0.4590(2) -0.17531(16) 0.5238(4)
H29 H -0.4980 -0.1588 0.4604
H30 H -0.4536 -0.1454 0.5806
H31 H -0.4765 -0.2169 0.5408
C47 C -0.24967(18) -0.3147(2) 0.3069(3)
H32 H -0.2091 -0.2816 0.3312
H33 H -0.2484 -0.3321 0.2412
H34 H -0.2394 -0.3489 0.3583
Zn1C Zn -0.35763(2) -0.264590(17) 0.90126(3)
Zn1C_2 Zn -0.35763(2) -0.264590(17) -0.09874(3)
O1C O -0.43534(13) -0.30773(10) 0.41109(16)
O12C O -0.28004(13) -0.16609(10) 0.38767(17)
O19 O -0.02944(17) -0.44503(15) 0.3156(2)
H23 H -0.0378 -0.4480 0.3721
C45 C -0.0951(3) -0.4179(3) 0.2417(4)
H24 H -0.1385 -0.4489 0.2219
H25 H -0.0815 -0.4061 0.1806
H26 H -0.1115 -0.3797 0.2705
O20 O -0.6682(3) -0.4591(2) 1.0077(4)
H27 H -0.6782 -0.4965 1.0218
C48 C -0.64376(19) -0.4603(3) 0.9330(3)
H35 H -0.6404 -0.4166 0.9093
H36 H -0.6803 -0.4851 0.8767
H37 H -0.5913 -0.4800 0.9541
O21 O -0.4967(6) -0.5295(4) 0.8589(6)
H28 H -0.5182 -0.5542 0.8092
C49 C -0.49297(19) -0.4660(2) 0.8199(3)
H38 H -0.4615 -0.4389 0.8770
H39 H -0.5464 -0.4485 0.7910
H40 H -0.4683 -0.4672 0.7661
loop_
_geom_bond_atom_site_label_1
_geom_bond_atom_site_label_2
_geom_bond_site_symmetry_1
_geom_bond_site_symmetry_2
Zn1 N1 1_555 1_555
O1 C43 1_555 1_555
O2 C43 1_555 1_555
O3 C44 1_555 1_555
O4 C44 1_555 1_555
O5 C24 1_555 1_555
O6 C25 1_555 1_555
O7 C33 1_555 1_555
O8 C34 1_555 1_555
N1 C36 1_555 1_555
N2 C35 1_555 1_555
N3 C40 1_555 1_555
N4 C39 1_555 1_555
O9 C21 1_555 1_555
O10 C21 1_555 1_555
O11 C22 1_555 1_555
O12 C22 1_555 1_555
O13 C2 1_555 1_555
O14 C3 1_555 1_555
O15 C11 1_555 1_555
O16 C12 1_555 1_555
N5 C14 1_555 1_555
N6 C13 1_555 1_555
N7 Zn1 1_555 1_555
N8 C17 1_555 1_555
C1 C2 1_555 1_555
C2 C3 1_555 1_555
C3 C4 1_555 1_555
C4 H1 1_555 1_555
C5 C4 1_555 1_555
H2 C5 1_555 1_555
C6 C1 1_555 1_555
H3 C6 1_555 1_555
C7 C8 1_555 1_555
C8 H4 1_555 1_555
C9 C8 1_555 1_555
H5 C9 1_555 1_555
C10 C9 1_555 1_555
H6 C10 1_555 1_555
C11 C10 1_555 1_555
C12 C7 1_555 1_555
C13 O13 1_555 1_555
C14 C13 1_555 1_555
H7 C14 1_555 1_555
C15 N5 1_555 1_555
H8 C15 1_555 1_555
C16 O15 1_555 1_555
C17 O14 1_555 1_555
C18 N7 1_555 1_555
H9 C18 1_555 1_555
C19 N7 1_555 1_555
H10 C19 1_555 1_555
C20 O16 1_555 1_555
C21 C1 1_555 1_555
C22 C7 1_555 1_555
C23 C24 1_555 1_555
C24 C25 1_555 1_555
C25 C26 1_555 1_555
C26 H11 1_555 1_555
C27 C26 1_555 1_555
H12 C27 1_555 1_555
C28 C23 1_555 1_555
H13 C28 1_555 1_555
C29 C30 1_555 1_555
C30 H14 1_555 1_555
C31 C30 1_555 1_555
H15 C31 1_555 1_555
C32 C31 1_555 1_555
H16 C32 1_555 1_555
C33 C32 1_555 1_555
C34 C29 1_555 1_555
C35 O5 1_555 1_555
C36 C35 1_555 1_555
H17 C36 1_555 1_555
C37 N1 1_555 1_555
H18 C37 1_555 1_555
C38 O7 1_555 1_555
C39 O6 1_555 1_555
C40 C39 1_555 1_555
H19 C40 1_555 1_555
C41 N3 1_555 1_555
H20 C41 1_555 1_555
C42 O8 1_555 1_555
C43 C23 1_555 1_555
C44 C29 1_555 1_555
O17 Zn1 1_555 1_555
H21 O17 1_555 1_555
O18 Zn1 1_555 1_555
H22 O18 1_555 1_555
O19 H23 1_555 1_555
C45 O19 1_555 1_555
H24 C45 1_555 1_555
H25 C45 1_555 1_555
H26 C45 1_555 1_555
O20 H27 1_555 1_555
O21 H28 1_555 1_555
C46 O17 1_555 1_555
H29 C46 1_555 1_555
H30 C46 1_555 1_555
H31 C46 1_555 1_555
C47 O18 1_555 1_555
H32 C47 1_555 1_555
H33 C47 1_555 1_555
H34 C47 1_555 1_555
C48 O20 1_555 1_555
H35 C48 1_555 1_555
H36 C48 1_555 1_555
H37 C48 1_555 1_555
C49 O21 1_555 1_555
H38 C49 1_555 1_555
H39 C49 1_555 1_555
H40 C49 1_555 1_555
Zn1C O12 1_555 1_555
Zn1C_2 O1 1_555 1_555
O1C Zn1 1_555 1_555
O12C Zn1 1_555 1_555
N2 C38 1_555 1_555
N4 C42 1_555 1_555
N6 C16 1_555 1_555
N8 C20 1_555 1_555
C5 C6 1_555 1_555
C11 C12 1_555 1_555
C15 C16 1_555 1_555
C17 C18 1_555 1_555
C19 C20 1_555 1_555
C27 C28 1_555 1_555
C33 C34 1_555 1_555
C37 C38 1_555 1_555
C41 C42 1_555 1_555

#END
