
#######################################################################
#
#                 Cambridge Crystallographic Data Centre
#                                CCDC 
#
#######################################################################
#
# If this CIF has been generated from an entry in the Cambridge 
# Structural Database, then it will include bibliographic, chemical, 
# crystal, experimental, refinement or atomic coordinate data resulting 
# from the CCDC's data processing and validation procedures.
#
#######################################################################

data_ZAYMAP
_symmetry_cell_setting           monoclinic
_symmetry_space_group_name_H-M   'P 21/n'
_symmetry_Int_Tables_number      14
_space_group_name_Hall           '-P 2yn'
loop_
_symmetry_equiv_pos_site_id
_symmetry_equiv_pos_as_xyz
1 x,y,z
2 1/2-x,1/2+y,1/2-z
3 -x,-y,-z
4 1/2+x,1/2-y,1/2+z
_cell_length_a                   10.9974(14)
_cell_length_b                   8.2574(11)
_cell_length_c                   25.408(3)
_cell_angle_alpha                90
_cell_angle_beta                 92.589(2)
_cell_angle_gamma                90
_cell_volume                     2304.94
loop_
_atom_site_label
_atom_site_type_symbol
_atom_site_fract_x
_atom_site_fract_y
_atom_site_fract_z
Pb1 Pb 0.45634(5) 0.91289(7) 0.41498(2)
Pb2 Pb 0.27020(5) 0.94119(6) 0.27468(2)
Pb3 Pb -0.10203(5) 0.86415(7) 0.37238(2)
C1 C 0.4756(12) 0.5936(17) 0.2186(6)
C2 C 0.5798(15) 0.8475(19) 0.3019(7)
C3 C 0.0680(10) 1.3640(8) 0.4531(5)
H1 H 0.0509 1.4743 0.4528
N1 N 0.1686(8) 1.3055(10) 0.4823(4)
C4 C 0.1941(7) 1.1407(11) 0.4827(4)
C5 C 0.1191(8) 1.0343(8) 0.4539(4)
N2 N 0.0185(8) 1.0928(9) 0.4247(4)
C6 C -0.0071(8) 1.2577(10) 0.4243(4)
H2 H -0.0744 1.2968 0.4048
C7 C 0.7854(7) 0.6923(11) 0.1741(3)
H3 H 0.8321 0.6638 0.1460
N3 N 0.6670(7) 0.6347(9) 0.1766(3)
C8 C 0.5971(6) 0.6772(11) 0.2187(4)
C9 C 0.6455(7) 0.7774(11) 0.2583(3)
N4 N 0.7639(8) 0.8350(11) 0.2558(3)
C10 C 0.8338(6) 0.7925(12) 0.2137(4)
H4 H 0.9130 0.8310 0.2121
C11 C 0.5644(8) 0.5164(9) 0.4472(3)
H5 H 0.6147 0.5744 0.4708
C12 C 0.5822(7) 0.3511(9) 0.4407(4)
H6 H 0.6443 0.2984 0.4600
N5 N 0.5071(8) 0.2644(7) 0.4054(3)
C13 C 0.4143(7) 0.3431(9) 0.3766(3)
C14 C 0.3966(7) 0.5084(9) 0.3831(3)
N6 N 0.4716(8) 0.5951(7) 0.4184(3)
C15 C 0.2939(15) 1.0927(19) 0.5193(7)
C16 C 0.1481(15) 0.8607(18) 0.4477(6)
C17 C 0.2981(13) 0.6004(17) 0.3541(6)
C18 C 0.3480(13) 0.2318(18) 0.3388(6)
O1 O 0.6001(11) 0.7835(15) 0.3461(5)
O2 O 0.5092(10) 0.9600(13) 0.2929(5)
O3 O 0.4040(9) 0.6542(12) 0.2484(4)
O4 O 0.4545(9) 0.4767(13) 0.1886(4)
O5 O 0.0668(10) 0.7662(13) 0.4277(5)
O6 O 0.2510(10) 0.8197(13) 0.4647(5)
O7 O 0.2706(11) 1.0349(15) 0.5628(5)
O8 O 0.3977(10) 1.1179(14) 0.5044(4)
O9 O 0.2155(9) 0.5188(12) 0.3319(4)
O10 O 0.3077(9) 0.7532(12) 0.3536(4)
O11 O 0.2943(10) 0.1153(12) 0.3572(4)
O12 O 0.3657(9) 0.2583(12) 0.2901(4)
O13 O -0.0276(13) 0.5907(17) 0.3176(6)
H7 H 0.0264 0.5099 0.3225
H8 H -0.0708 0.5830 0.2890
Pb1B Pb 0.54366(5) 1.08711(7) 0.58502(2)
Pb1_2 Pb 0.45634(5) -0.08711(7) 0.41498(2)
Pb2A Pb 0.22980(5) 0.44119(6) 0.22532(2)
Pb2_2 Pb 0.27020(5) -0.05881(6) 0.27468(2)
Pb3A Pb 0.60203(5) 0.36415(7) 0.12762(2)
Pb3B Pb 0.10203(5) 1.13585(7) 0.62762(2)
N3A N -0.1670(7) 1.1347(9) 0.3234(3)
O3A O 0.0960(9) 1.1542(12) 0.2516(4)
O4A O 0.0455(9) 0.9767(13) 0.3114(4)
O7B O -0.2706(11) 0.9651(15) 0.4372(5)
O8B O 0.6023(10) 0.8821(14) 0.4956(4)
O9A O 0.2845(9) 1.0188(12) 0.1681(4)
O11_2 O 0.2943(10) 1.1153(12) 0.3572(4)
O12_2 O 0.3657(9) 1.2583(12) 0.2901(4)
O12A O 0.1343(9) 0.7583(12) 0.2099(4)
loop_
_geom_bond_atom_site_label_1
_geom_bond_atom_site_label_2
_geom_bond_site_symmetry_1
_geom_bond_site_symmetry_2
Pb1 N6 1_555 1_555
Pb2 O2 1_555 1_555
Pb3 N2 1_555 1_555
C1 C8 1_555 1_555
C2 C9 1_555 1_555
C3 H1 1_555 1_555
N1 C3 1_555 1_555
C4 N1 1_555 1_555
C5 C4 1_555 1_555
N2 C5 1_555 1_555
C6 C3 1_555 1_555
H2 C6 1_555 1_555
C7 H3 1_555 1_555
N3 C7 1_555 1_555
C8 N3 1_555 1_555
C9 C8 1_555 1_555
N4 C9 1_555 1_555
C10 C7 1_555 1_555
H4 C10 1_555 1_555
C11 H5 1_555 1_555
C12 C11 1_555 1_555
H6 C12 1_555 1_555
N5 C12 1_555 1_555
C13 N5 1_555 1_555
C14 C13 1_555 1_555
N6 C11 1_555 1_555
C15 C4 1_555 1_555
C16 C5 1_555 1_555
C17 C14 1_555 1_555
C18 C13 1_555 1_555
O1 Pb1 1_555 1_555
O2 C2 1_555 1_555
O3 Pb2 1_555 1_555
O4 C1 1_555 1_555
O5 Pb3 1_555 1_555
O6 Pb1 1_555 1_555
O7 C15 1_555 1_555
O8 Pb1 1_555 1_555
O9 C17 1_555 1_555
O10 Pb1 1_555 1_555
O11 C18 1_555 1_555
O12 C18 1_555 1_555
O13 Pb3 1_555 1_555
H7 O13 1_555 1_555
H8 O13 1_555 1_555
Pb1B O8 1_555 1_555
Pb1_2 O11 1_555 1_555
Pb2A O3 1_555 1_555
Pb2_2 O11 1_555 1_555
Pb3A N3 1_555 1_555
Pb3B O7 1_555 1_555
N3A Pb3 1_555 1_555
O3A Pb2 1_555 1_555
O4A Pb2 1_555 1_555
O7B Pb3 1_555 1_555
O8B Pb1 1_555 1_555
O9A Pb2 1_555 1_555
O11_2 Pb1 1_555 1_555
O12_2 Pb2 1_555 1_555
O12A Pb2 1_555 1_555
Pb2 O10 1_555 1_555
Pb2 O11_2 1_555 1_555
Pb3 O4A 1_555 1_555
C1 O3 1_555 1_555
C2 O1 1_555 1_555
N2 C6 1_555 1_555
N4 C10 1_555 1_555
C14 N6 1_555 1_555
C15 O8 1_555 1_555
C16 O5 1_555 1_555
C16 O6 1_555 1_555
C17 O10 1_555 1_555
O4 Pb2A 1_555 1_555
O4 Pb3A 1_555 1_555
O9 Pb2A 1_555 1_555
O12 Pb2A 1_555 1_555
O12 Pb2_2 1_555 1_555
Pb1B O8B 1_555 1_555
Pb2A O12A 1_555 1_555

#END
