
#######################################################################
#
#                 Cambridge Crystallographic Data Centre
#                                CCDC 
#
#######################################################################
#
# If this CIF has been generated from an entry in the Cambridge 
# Structural Database, then it will include bibliographic, chemical, 
# crystal, experimental, refinement or atomic coordinate data resulting 
# from the CCDC's data processing and validation procedures.
#
#######################################################################

data_ZAYMET
_symmetry_cell_setting           monoclinic
_symmetry_space_group_name_H-M   'P 21/c'
_symmetry_Int_Tables_number      14
_space_group_name_Hall           '-P 2ybc'
loop_
_symmetry_equiv_pos_site_id
_symmetry_equiv_pos_as_xyz
1 x,y,z
2 -x,1/2+y,1/2-z
3 -x,-y,-z
4 x,1/2-y,1/2+z
_cell_length_a                   11.0445(16)
_cell_length_b                   7.2809(12)
_cell_length_c                   8.9464(13)
_cell_angle_alpha                90
_cell_angle_beta                 107.160(2)
_cell_angle_gamma                90
_cell_volume                     687.39
loop_
_atom_site_label
_atom_site_type_symbol
_atom_site_fract_x
_atom_site_fract_y
_atom_site_fract_z
Cu1 Cu 0.0000 0.5000 1.0000
C1 C 0.1907(4) 0.7520(6) 0.9322(6)
C2 C 0.2879(5) 0.7839(7) 0.8699(6)
C3 C 0.2921(5) 0.4824(6) 0.8055(5)
C4 C 0.1883(4) 0.4469(6) 0.8574(5)
C5 C 0.3632(4) 0.3458(6) 0.7332(5)
C6 C 0.1126(4) 0.2691(6) 0.8369(5)
H1 H 0.151(5) 0.853(8) 0.975(6)
H2 H 0.319(4) 0.896(7) 0.871(5)
N1 N 0.1421(3) 0.5830(5) 0.9277(4)
N2 N 0.3414(4) 0.6509(5) 0.8110(5)
O1 O 0.0229(3) 0.2696(4) 0.8988(4)
O2 O 0.1392(3) 0.1463(4) 0.7579(4)
O3 O 0.4355(4) 0.2273(6) 0.8343(5)
O4 O 0.3600(4) 0.3644(5) 0.5982(4)
H3 H 0.4923 0.1615 0.8105
Cu1A Cu 0.0000 0.0000 0.5000
Cu1A_2 Cu 0.0000 1.0000 1.5000
C1B C -0.1907(4) 0.2480(6) 1.0678(6)
C2B C -0.2879(5) 0.2161(7) 1.1301(6)
C3B C -0.2921(5) 0.5176(6) 1.1945(5)
C4B C -0.1883(4) 0.5531(6) 1.1426(5)
C5B C -0.3632(4) 0.6542(6) 1.2668(5)
C6B C -0.1126(4) 0.7309(6) 1.1631(5)
H1B H -0.151(5) 0.147(8) 1.025(6)
H2B H -0.319(4) 0.104(7) 1.129(5)
N1B N -0.1421(3) 0.4170(5) 1.0723(4)
N2B N -0.3414(4) 0.3491(5) 1.1890(5)
O1B O -0.0229(3) 0.7304(4) 1.1012(4)
O2B O -0.1392(3) 0.8537(4) 1.2421(4)
O2A O -0.1392(3) 0.6463(4) 0.7421(4)
O2C O 0.1392(3) 0.3537(4) 1.2579(4)
O3B O -0.4355(4) 0.7727(6) 1.1657(5)
O4B O -0.3600(4) 0.6356(5) 1.4018(4)
H3B H -0.4923 0.8385 1.1895
loop_
_geom_bond_atom_site_label_1
_geom_bond_atom_site_label_2
_geom_bond_site_symmetry_1
_geom_bond_site_symmetry_2
Cu1 N1 1_555 1_555
C1 C2 1_555 1_555
C2 H2 1_555 1_555
C3 C4 1_555 1_555
C4 C6 1_555 1_555
C5 C3 1_555 1_555
C6 O1 1_555 1_555
H1 C1 1_555 1_555
N1 C1 1_555 1_555
N2 C2 1_555 1_555
O1 Cu1 1_555 1_555
O2 C6 1_555 1_555
O3 C5 1_555 1_555
O4 C5 1_555 1_555
H3 O3 1_555 1_555
Cu1A O2 1_555 1_555
Cu1A_2 O2B 1_555 1_555
C1B C2B 1_555 1_555
C2B H2B 1_555 1_555
C3B C4B 1_555 1_555
C4B C6B 1_555 1_555
C5B C3B 1_555 1_555
C6B O1B 1_555 1_555
H1B C1B 1_555 1_555
N1B Cu1 1_555 1_555
N2B C2B 1_555 1_555
O1B Cu1 1_555 1_555
O2B C6B 1_555 1_555
O2A Cu1 1_555 1_555
O2C Cu1 1_555 1_555
O3B C5B 1_555 1_555
O4B C5B 1_555 1_555
H3B O3B 1_555 1_555
C3 N2 1_555 1_555
C4 N1 1_555 1_555
C1B N1B 1_555 1_555
C3B N2B 1_555 1_555
C4B N1B 1_555 1_555

#END
