
#######################################################################
#
#                 Cambridge Crystallographic Data Centre
#                                CCDC 
#
#######################################################################
#
# If this CIF has been generated from an entry in the Cambridge 
# Structural Database, then it will include bibliographic, chemical, 
# crystal, experimental, refinement or atomic coordinate data resulting 
# from the CCDC's data processing and validation procedures.
#
#######################################################################

data_ZAYQEX
_symmetry_cell_setting           monoclinic
_symmetry_space_group_name_H-M   'P 21/c'
_symmetry_Int_Tables_number      14
_space_group_name_Hall           '-P 2ybc'
loop_
_symmetry_equiv_pos_site_id
_symmetry_equiv_pos_as_xyz
1 x,y,z
2 -x,1/2+y,1/2-z
3 -x,-y,-z
4 x,1/2-y,1/2+z
_cell_length_a                   11.1247(12)
_cell_length_b                   13.8804(15)
_cell_length_c                   16.0419(17)
_cell_angle_alpha                90
_cell_angle_beta                 98.714(2)
_cell_angle_gamma                90
_cell_volume                     2448.52
loop_
_atom_site_label
_atom_site_type_symbol
_atom_site_fract_x
_atom_site_fract_y
_atom_site_fract_z
Cu1 Cu 0.52256(3) 0.50471(2) 0.87892(2)
C1 C 0.5590(2) 0.58968(19) 0.64206(17)
C2 C 0.5327(2) 0.68559(19) 0.62326(17)
H1 H 0.4946 0.7230 0.6596
C3 C 0.5635(2) 0.72564(18) 0.55025(17)
C4 C 0.6248(2) 0.67163(19) 0.49726(17)
H2 H 0.6459 0.6991 0.4486
C5 C 0.6544(2) 0.57624(19) 0.51734(18)
C6 C 0.6181(3) 0.5354(2) 0.58849(18)
H3 H 0.6337 0.4706 0.6003
C7 C 0.5271(2) 0.5434(2) 0.72028(18)
C8 C 0.5297(2) 0.82932(19) 0.52908(17)
C9 C 0.7998(3) 0.5438(2) 0.4190(2)
C10 C 0.8593(3) 0.4633(2) 0.37764(19)
C11 C 0.9829(3) 0.4627(2) 0.3777(2)
H4 H 1.0318 0.5109 0.4051
C12 C 1.0332(3) 0.3894(2) 0.3363(2)
H5 H 1.1172 0.3885 0.3386
C13 C 0.8486(3) 0.3220(2) 0.2930(2)
H6 H 0.8012 0.2748 0.2628
C14 C 0.7906(3) 0.3905(2) 0.3351(2)
H7 H 0.7070 0.3877 0.3349
C15 C 0.2709(3) 0.4340(2) 0.8366(2)
H8 H 0.3083 0.3851 0.8103
C16 C 0.1482(3) 0.4285(2) 0.8362(2)
H9 H 0.1045 0.3764 0.8108
C17 C 0.0885(2) 0.50129(19) 0.87393(19)
C18 C -0.0435(3) 0.4996(2) 0.87663(19)
C19 C -0.1117(3) 0.4157(2) 0.8686(2)
H10 H -0.0743 0.3571 0.8611
C20 C -0.2349(3) 0.4187(2) 0.8718(2)
H11 H -0.2783 0.3612 0.8666
C21 C -0.2296(3) 0.5811(2) 0.8889(2)
H12 H -0.2696 0.6388 0.8954
C22 C -0.1072(3) 0.5836(2) 0.8867(2)
H13 H -0.0663 0.6422 0.8920
C23 C 0.1610(2) 0.5765(2) 0.90934(19)
H14 H 0.1260 0.6276 0.9345
C24 C 0.2833(2) 0.5761(2) 0.90744(19)
H15 H 0.3291 0.6278 0.9317
N1 N 0.9683(2) 0.31966(19) 0.29305(17)
N2 N 0.7194(2) 0.51621(16) 0.46836(15)
H22 H 0.7056 0.4554 0.4706
N3 N 0.3407(2) 0.50615(15) 0.87293(15)
N4 N -0.2946(2) 0.49983(15) 0.88206(15)
O1 O 0.51471(16) 0.59914(13) 0.78181(11)
O2 O 0.5163(2) 0.45522(14) 0.72393(13)
O3 O 0.47302(16) 0.87176(12) 0.58123(12)
O4 O 0.55717(17) 0.86552(13) 0.46387(12)
O5 O 0.8258(2) 0.62763(16) 0.40722(17)
Cu1_2 Cu -0.47744(3) 0.50471(2) 0.87892(2)
Cu1A Cu 0.47744(3) 1.00471(2) 0.62108(2)
Cu1C Cu 0.52256(3) 0.99529(2) 0.37892(2)
N4_2 N 0.7054(2) 0.49983(15) 0.88206(15)
O3A O 0.52698(16) 0.37176(12) 0.91877(12)
O4C O 0.55717(17) 0.63448(13) 0.96387(12)
H16 H 0.012(4) 0.726(3) 0.307(3)
H19 H -0.029(5) 0.674(4) 0.364(3)
O6 O 0.0316(3) 0.6997(2) 0.3529(2)
H17 H 0.698(4) 0.310(3) 0.580(3)
H20 H 0.808(3) 0.319(3) 0.571(2)
O7 O 0.7420(4) 0.3203(2) 0.5405(2)
H18 H 0.568(3) 0.323(3) 0.695(2)
H21 H 0.557(3) 0.234(2) 0.680(3)
O8 O 0.6048(2) 0.2803(2) 0.67465(19)
loop_
_geom_bond_atom_site_label_1
_geom_bond_atom_site_label_2
_geom_bond_site_symmetry_1
_geom_bond_site_symmetry_2
Cu1 N3 1_555 1_555
C1 C2 1_555 1_555
C2 H1 1_555 1_555
C3 C2 1_555 1_555
C4 C3 1_555 1_555
H2 C4 1_555 1_555
C5 C4 1_555 1_555
C6 C1 1_555 1_555
H3 C6 1_555 1_555
C7 C1 1_555 1_555
C8 C3 1_555 1_555
C9 C10 1_555 1_555
C10 C11 1_555 1_555
C11 H4 1_555 1_555
C12 C11 1_555 1_555
H5 C12 1_555 1_555
C13 H6 1_555 1_555
C14 C10 1_555 1_555
H7 C14 1_555 1_555
C15 H8 1_555 1_555
C16 C15 1_555 1_555
H9 C16 1_555 1_555
C17 C16 1_555 1_555
C18 C17 1_555 1_555
C19 C18 1_555 1_555
H10 C19 1_555 1_555
C20 C19 1_555 1_555
H11 C20 1_555 1_555
C21 H12 1_555 1_555
C22 C18 1_555 1_555
H13 C22 1_555 1_555
C23 C17 1_555 1_555
H14 C23 1_555 1_555
C24 C23 1_555 1_555
H15 C24 1_555 1_555
H16 O6 1_555 1_555
H17 O7 1_555 1_555
H18 O8 1_555 1_555
H19 O6 1_555 1_555
H20 O7 1_555 1_555
H21 O8 1_555 1_555
N1 C12 1_555 1_555
N2 C5 1_555 1_555
H22 N2 1_555 1_555
N3 C15 1_555 1_555
N4 C20 1_555 1_555
O1 Cu1 1_555 1_555
O2 Cu1 1_555 1_555
O3 C8 1_555 1_555
O4 C8 1_555 1_555
O5 C9 1_555 1_555
Cu1_2 N4 1_555 1_555
Cu1A O3 1_555 1_555
Cu1C O4 1_555 1_555
N4_2 Cu1 1_555 1_555
O3A Cu1 1_555 1_555
O4C Cu1 1_555 1_555
C5 C6 1_555 1_555
C7 O1 1_555 1_555
C7 O2 1_555 1_555
C9 N2 1_555 1_555
C13 C14 1_555 1_555
C13 N1 1_555 1_555
C21 C22 1_555 1_555
C21 N4 1_555 1_555
C24 N3 1_555 1_555

#END
