
#######################################################################
#
#                 Cambridge Crystallographic Data Centre
#                                CCDC 
#
#######################################################################
#
# If this CIF has been generated from an entry in the Cambridge 
# Structural Database, then it will include bibliographic, chemical, 
# crystal, experimental, refinement or atomic coordinate data resulting 
# from the CCDC's data processing and validation procedures.
#
#######################################################################

data_ZAYROI
_symmetry_cell_setting           triclinic
_symmetry_space_group_name_H-M   'P -1'
_symmetry_Int_Tables_number      2
_space_group_name_Hall           '-P 1'
loop_
_symmetry_equiv_pos_site_id
_symmetry_equiv_pos_as_xyz
1 x,y,z
2 -x,-y,-z
_cell_length_a                   6.6451(12)
_cell_length_b                   11.775(2)
_cell_length_c                   17.515(3)
_cell_angle_alpha                72.254(2)
_cell_angle_beta                 88.732(3)
_cell_angle_gamma                87.464(3)
_cell_volume                     1303.94
loop_
_atom_site_label
_atom_site_type_symbol
_atom_site_fract_x
_atom_site_fract_y
_atom_site_fract_z
Cd1 Cd 1.0000 0.5000 1.0000
Cd2 Cd 0.67103(10) 0.74948(6) 0.87750(4)
Cd3 Cd 0.65507(10) 0.19308(6) 0.97366(4)
Cd4 Cd -0.00431(10) 1.00671(6) 0.89301(4)
P1 P 0.6735(4) 0.4899(2) 0.85242(15)
P2 P 0.1740(4) 0.7429(2) 0.85764(15)
P3 P 1.4983(4) 0.0294(2) 0.85601(15)
P4 P 1.1359(4) 0.2349(2) 0.95296(14)
O1 O 0.8696(10) 0.5159(6) 0.7972(4)
H1 H 0.9496 0.5507 0.8163
O2 O 0.6263(10) 0.3626(5) 0.8718(4)
O3 O 0.6965(10) 0.5438(5) 0.9206(4)
O4 O 0.0761(12) 0.6224(6) 0.8737(4)
O5 O 0.3342(9) 0.7366(5) 0.9185(4)
O6 O 0.0087(10) 0.8410(6) 0.8497(4)
O7 O 1.5835(10) -0.0612(5) 0.8174(4)
O8 O 1.3443(10) -0.0142(5) 0.9225(4)
O9 O 1.6720(10) 0.0906(5) 0.8816(4)
O10 O 0.9942(9) 0.1291(5) 0.9766(4)
O11 O 1.3254(9) 0.2044(6) 1.0041(4)
O12 O 1.0242(11) 0.3443(5) 0.9607(4)
N1 N 0.4989(12) 0.7046(7) 0.7631(5)
N2 N 1.1555(12) 0.1801(7) 0.8022(4)
C1 C 0.4714(14) 0.5733(8) 0.7893(6)
H2 H 0.4639 0.5467 0.7422
H3 H 0.3447 0.5565 0.8183
C2 C 0.3045(13) 0.7719(8) 0.7614(6)
H4 H 0.2164 0.7530 0.7239
H5 H 0.3287 0.8566 0.7410
C3 C 0.6093(15) 0.7405(9) 0.6842(6)
H6 H 0.7095 0.6758 0.6870
C4 C 0.4823(18) 0.7503(12) 0.6113(6)
H7 H 0.3860 0.8173 0.6027
H8 H 0.4082 0.6783 0.6200
C5 C 0.622(2) 0.7684(14) 0.5364(7)
H9 H 0.7131 0.6993 0.5438
H10 H 0.5415 0.7769 0.4893
C6 C 0.743(2) 0.8803(13) 0.5242(8)
H11 H 0.8341 0.8895 0.4788
H12 H 0.6520 0.9500 0.5123
C7 C 0.862(2) 0.8723(12) 0.5978(7)
H13 H 0.9321 0.9458 0.5893
H14 H 0.9628 0.8075 0.6062
C8 C 0.7290(19) 0.8515(10) 0.6722(7)
H15 H 0.8119 0.8420 0.7188
H16 H 0.6374 0.9199 0.6665
C9 C 1.3510(15) 0.1381(9) 0.7768(5)
H17 H 1.4321 0.2069 0.7536
H18 H 1.3263 0.1025 0.7349
C10 C 1.1907(16) 0.2689(9) 0.8472(6)
H19 H 1.0546 0.2994 0.8359
H20 H 1.2379 0.3435 0.8192
C11 C 1.0164(16) 0.2354(9) 0.7333(6)
H21 H 0.8922 0.2607 0.7558
C12 C 0.9582(18) 0.1487(10) 0.6908(7)
H22 H 0.9105 0.0770 0.7297
H23 H 1.0759 0.1264 0.6640
C13 C 0.794(2) 0.2023(12) 0.6289(7)
H24 H 0.6721 0.2190 0.6560
H25 H 0.7628 0.1457 0.6011
C14 C 0.865(2) 0.3197(11) 0.5675(7)
H26 H 0.9761 0.3014 0.5357
H27 H 0.7560 0.3570 0.5316
C15 C 0.933(2) 0.4061(11) 0.6105(8)
H28 H 0.9857 0.4765 0.5717
H29 H 0.8191 0.4312 0.6378
C16 C 1.0960(18) 0.3459(9) 0.6714(7)
H30 H 1.1392 0.4015 0.6982
H31 H 1.2117 0.3232 0.6437
Cd1_2 Cd 0.0000 0.5000 1.0000
Cd1_3 Cd 2.0000 0.5000 1.0000
Cd2_2 Cd 1.67103(10) 0.74948(6) 0.87750(4)
Cd2_3 Cd -0.32897(10) 0.74948(6) 0.87750(4)
Cd2_4 Cd 1.67103(10) -0.25052(6) 0.87750(4)
Cd2A Cd 1.32897(10) 0.25052(6) 1.12250(4)
Cd2A_2 Cd 0.32897(10) 1.25052(6) 1.12250(4)
Cd3_2 Cd 1.65507(10) 0.19308(6) 0.97366(4)
Cd3A Cd 0.34493(10) 0.80692(6) 1.02634(4)
Cd3A_2 Cd 1.34493(10) -0.19308(6) 1.02634(4)
Cd3A_3 Cd 1.34493(10) 0.80692(6) 1.02634(4)
Cd3_3 Cd 0.65507(10) 1.19308(6) 0.97366(4)
Cd4_2 Cd 0.99569(10) 1.00671(6) 0.89301(4)
Cd4_3 Cd 0.99569(10) 0.00671(6) 0.89301(4)
Cd4_4 Cd 1.99569(10) 0.00671(6) 0.89301(4)
Cd4A Cd 1.00431(10) -0.00671(6) 1.10699(4)
Cd4A_2 Cd 1.00431(10) 0.99329(6) 1.10699(4)
Cd4A_3 Cd 0.00431(10) 0.99329(6) 1.10699(4)
P1_2 P 1.6735(4) 0.4899(2) 0.85242(15)
P2_2 P 1.1740(4) 0.7429(2) 0.85764(15)
P3A P 0.5017(4) 0.9706(2) 1.14399(15)
P4A P 0.8641(4) 0.7651(2) 1.04704(14)
O1_2 O 1.8696(10) 0.5159(6) 0.7972(4)
H1_2 H 1.9496 0.5507 0.8163
O2_2 O 1.6263(10) 0.3626(5) 0.8718(4)
O3_2 O 1.6965(10) 0.5438(5) 0.9206(4)
O3A O 1.3035(10) 0.4562(5) 1.0794(4)
O4_2 O 1.0761(12) 0.6224(6) 0.8737(4)
O4A O 0.9239(12) 0.3776(6) 1.1263(4)
O5_2 O 1.3342(9) 0.7366(5) 0.9185(4)
O5A O 0.6658(9) 0.2634(5) 1.0815(4)
O5A_2 O 1.6658(9) 0.2634(5) 1.0815(4)
O6_2 O 1.0087(10) 0.8410(6) 0.8497(4)
O6_3 O 2.0087(10) 0.8410(6) 0.8497(4)
O7A O 0.4165(10) 1.0612(5) 1.1826(4)
O7_2 O 0.5835(10) 0.9388(5) 0.8174(4)
O7_3 O 1.5835(10) 0.9388(5) 0.8174(4)
O8A O 0.6557(10) 1.0142(5) 1.0775(4)
O8A_2 O 0.6557(10) 0.0142(5) 1.0775(4)
O8_2 O 0.3443(10) 0.9858(5) 0.9225(4)
O8A_3 O 1.6557(10) 0.0142(5) 1.0775(4)
O8_3 O 1.3443(10) 0.9858(5) 0.9225(4)
O9A O 0.3280(10) 0.9094(5) 1.1184(4)
O9_2 O 0.6720(10) 0.0906(5) 0.8816(4)
O9_3 O -0.3280(10) 1.0906(5) 0.8816(4)
O9_4 O 0.6720(10) 1.0906(5) 0.8816(4)
O10A O 1.0058(9) 0.8709(5) 1.0234(4)
O10_2 O -0.0058(9) 1.1291(5) 0.9766(4)
O10A_2 O 0.0058(9) 0.8709(5) 1.0234(4)
O10_3 O 1.9942(9) 0.1291(5) 0.9766(4)
O10_4 O 0.9942(9) 1.1291(5) 0.9766(4)
O11A O 0.6746(9) 0.7956(6) 0.9959(4)
O11_2 O 0.3254(9) 0.2044(6) 1.0041(4)
O11A_2 O 1.6746(9) 0.7956(6) 0.9959(4)
O12A O 0.9758(11) 0.6557(5) 1.0393(4)
N1_2 N 1.4989(12) 0.7046(7) 0.7631(5)
N2A N 0.8445(12) 0.8199(7) 1.1978(4)
N2_2 N 0.1555(12) 1.1801(7) 0.8022(4)
N2_3 N 1.1555(12) 1.1801(7) 0.8022(4)
C1_2 C 1.4714(14) 0.5733(8) 0.7893(6)
H2_2 H 1.4639 0.5467 0.7422
H3_2 H 1.3447 0.5565 0.8183
C2_2 C 1.3045(13) 0.7719(8) 0.7614(6)
H4_2 H 1.2164 0.7530 0.7239
H5_2 H 1.3287 0.8566 0.7410
C3_2 C 1.6093(15) 0.7405(9) 0.6842(6)
H6_2 H 1.7095 0.6758 0.6870
C4_2 C 1.4823(18) 0.7503(12) 0.6113(6)
H7_2 H 1.3860 0.8173 0.6027
H8_2 H 1.4082 0.6783 0.6200
C5_2 C 1.622(2) 0.7684(14) 0.5364(7)
H9_2 H 1.7131 0.6993 0.5438
H10_2 H 1.5415 0.7769 0.4893
C6_2 C 1.743(2) 0.8803(13) 0.5242(8)
H11_2 H 1.8341 0.8895 0.4788
H12_2 H 1.6520 0.9500 0.5123
C7_2 C 1.862(2) 0.8723(12) 0.5978(7)
H13_2 H 1.9321 0.9458 0.5893
H14_2 H 1.9628 0.8075 0.6062
C8_2 C 1.7290(19) 0.8515(10) 0.6722(7)
H15_2 H 1.8119 0.8420 0.7188
H16_2 H 1.6374 0.9199 0.6665
C9A C 0.6490(15) 0.8619(9) 1.2232(5)
H17A H 0.5679 0.7931 1.2464
H18A H 0.6737 0.8975 1.2651
C10A C 0.8093(16) 0.7311(9) 1.1528(6)
H19A H 0.9454 0.7006 1.1641
H20A H 0.7621 0.6565 1.1808
C11A C 0.9836(16) 0.7646(9) 1.2667(6)
H21A H 1.1078 0.7393 1.2442
C12A C 1.0418(18) 0.8513(10) 1.3092(7)
H22A H 1.0895 0.9230 1.2703
H23A H 0.9241 0.8736 1.3360
C13A C 1.206(2) 0.7977(12) 1.3711(7)
H24A H 1.3279 0.7810 1.3440
H25A H 1.2372 0.8543 1.3989
C14A C 1.135(2) 0.6803(11) 1.4325(7)
H26A H 1.0239 0.6986 1.4643
H27A H 1.2440 0.6430 1.4684
C15A C 1.067(2) 0.5939(11) 1.3895(8)
H28A H 1.0143 0.5235 1.4283
H29A H 1.1809 0.5688 1.3622
C16A C 0.9040(18) 0.6541(9) 1.3286(7)
H30A H 0.8608 0.5985 1.3018
H31A H 0.7883 0.6768 1.3563
loop_
_geom_bond_atom_site_label_1
_geom_bond_atom_site_label_2
_geom_bond_site_symmetry_1
_geom_bond_site_symmetry_2
Cd1 O3 1_555 1_555
Cd2 O3 1_555 1_555
Cd3 O2 1_555 1_555
Cd4 O6 1_555 1_555
P1 O1 1_555 1_555
P2 O4 1_555 1_555
P3 O7 1_555 1_555
P4 O10 1_555 1_555
O1 H1 1_555 1_555
O2 P1 1_555 1_555
O3 P1 1_555 1_555
O4 Cd1_2 1_555 1_555
O5 Cd2 1_555 1_555
O6 P2 1_555 1_555
O7 Cd2_4 1_555 1_555
O8 P3 1_555 1_555
O9 P3 1_555 1_555
O10 Cd3 1_555 1_555
O11 P4 1_555 1_555
O12 Cd1 1_555 1_555
N1 Cd2 1_555 1_555
N2 C9 1_555 1_555
C1 P1 1_555 1_555
H2 C1 1_555 1_555
H3 C1 1_555 1_555
C2 P2 1_555 1_555
H4 C2 1_555 1_555
H5 C2 1_555 1_555
C3 N1 1_555 1_555
H6 C3 1_555 1_555
C4 C3 1_555 1_555
H7 C4 1_555 1_555
H8 C4 1_555 1_555
C5 C4 1_555 1_555
H9 C5 1_555 1_555
H10 C5 1_555 1_555
C6 C5 1_555 1_555
H11 C6 1_555 1_555
H12 C6 1_555 1_555
C7 C6 1_555 1_555
H13 C7 1_555 1_555
H14 C7 1_555 1_555
C8 C3 1_555 1_555
H15 C8 1_555 1_555
H16 C8 1_555 1_555
C9 P3 1_555 1_555
H17 C9 1_555 1_555
H18 C9 1_555 1_555
C10 P4 1_555 1_555
H19 C10 1_555 1_555
H20 C10 1_555 1_555
C11 N2 1_555 1_555
H21 C11 1_555 1_555
C12 C11 1_555 1_555
H22 C12 1_555 1_555
H23 C12 1_555 1_555
C13 C12 1_555 1_555
H24 C13 1_555 1_555
H25 C13 1_555 1_555
C14 C13 1_555 1_555
H26 C14 1_555 1_555
H27 C14 1_555 1_555
C15 C14 1_555 1_555
H28 C15 1_555 1_555
H29 C15 1_555 1_555
C16 C11 1_555 1_555
H30 C16 1_555 1_555
H31 C16 1_555 1_555
Cd1_3 O3_2 1_555 1_555
Cd2_2 O3_2 1_555 1_555
Cd2_3 O6 1_555 1_555
Cd2A O11 1_555 1_555
Cd2A_2 O7A 1_555 1_555
Cd3_2 O9 1_555 1_555
Cd3A O5 1_555 1_555
Cd3A_2 O8 1_555 1_555
Cd3A_3 O5_2 1_555 1_555
Cd3_3 O8A 1_555 1_555
Cd4_2 O6_2 1_555 1_555
Cd4_3 O8 1_555 1_555
Cd4_4 O9 1_555 1_555
Cd4A O10 1_555 1_555
Cd4A_2 O8A 1_555 1_555
Cd4A_3 O9A 1_555 1_555
P1_2 O1_2 1_555 1_555
P2_2 O4_2 1_555 1_555
P3A O7A 1_555 1_555
P4A O10A 1_555 1_555
O1_2 H1_2 1_555 1_555
O2_2 Cd3_2 1_555 1_555
O3_2 P1_2 1_555 1_555
O3A Cd1 1_555 1_555
O4_2 Cd1 1_555 1_555
O4A Cd1 1_555 1_555
O5_2 Cd2_2 1_555 1_555
O5A Cd3 1_555 1_555
O5A_2 Cd2A 1_555 1_555
O6_2 Cd2 1_555 1_555
O6_3 Cd2_2 1_555 1_555
O7_2 Cd2 1_555 1_555
O7_3 Cd2_2 1_555 1_555
O8A P3A 1_555 1_555
O8A_2 Cd3 1_555 1_555
O8_2 Cd4 1_555 1_555
O8A_3 Cd3_2 1_555 1_555
O8_3 Cd3A_3 1_555 1_555
O9A Cd3A 1_555 1_555
O9_2 Cd3 1_555 1_555
O9_3 Cd4 1_555 1_555
O9_4 Cd3_3 1_555 1_555
O10A Cd3A_3 1_555 1_555
O10_2 Cd4 1_555 1_555
O10A_2 Cd4 1_555 1_555
O10_3 Cd3_2 1_555 1_555
O10_4 Cd3_3 1_555 1_555
O11A Cd2 1_555 1_555
O11_2 Cd3 1_555 1_555
O11A_2 Cd2_2 1_555 1_555
O12A Cd1 1_555 1_555
N1_2 Cd2_2 1_555 1_555
N2A Cd4A_2 1_555 1_555
N2_2 Cd4 1_555 1_555
N2_3 Cd4_2 1_555 1_555
C1_2 P1_2 1_555 1_555
H2_2 C1_2 1_555 1_555
H3_2 C1_2 1_555 1_555
C2_2 P2_2 1_555 1_555
H4_2 C2_2 1_555 1_555
H5_2 C2_2 1_555 1_555
C3_2 N1_2 1_555 1_555
H6_2 C3_2 1_555 1_555
C4_2 C3_2 1_555 1_555
H7_2 C4_2 1_555 1_555
H8_2 C4_2 1_555 1_555
C5_2 C4_2 1_555 1_555
H9_2 C5_2 1_555 1_555
H10_2 C5_2 1_555 1_555
C6_2 C5_2 1_555 1_555
H11_2 C6_2 1_555 1_555
H12_2 C6_2 1_555 1_555
C7_2 C6_2 1_555 1_555
H13_2 C7_2 1_555 1_555
H14_2 C7_2 1_555 1_555
C8_2 C3_2 1_555 1_555
H15_2 C8_2 1_555 1_555
H16_2 C8_2 1_555 1_555
C9A P3A 1_555 1_555
H17A C9A 1_555 1_555
H18A C9A 1_555 1_555
C10A P4A 1_555 1_555
H19A C10A 1_555 1_555
H20A C10A 1_555 1_555
C11A N2A 1_555 1_555
H21A C11A 1_555 1_555
C12A C11A 1_555 1_555
H22A C12A 1_555 1_555
H23A C12A 1_555 1_555
C13A C12A 1_555 1_555
H24A C13A 1_555 1_555
H25A C13A 1_555 1_555
C14A C13A 1_555 1_555
H26A C14A 1_555 1_555
H27A C14A 1_555 1_555
C15A C14A 1_555 1_555
H28A C15A 1_555 1_555
H29A C15A 1_555 1_555
C16A C11A 1_555 1_555
H30A C16A 1_555 1_555
H31A C16A 1_555 1_555
P2 O5 1_555 1_555
P4 O12 1_555 1_555
O10 Cd4_3 1_555 1_555
O11 Cd3_2 1_555 1_555
N1 C1 1_555 1_555
N1 C2 1_555 1_555
N2 C10 1_555 1_555
N2 Cd4_3 1_555 1_555
C7 C8 1_555 1_555
C15 C16 1_555 1_555
Cd2A O3A 1_555 1_555
Cd3_2 O5A_2 1_555 1_555
Cd3A O8_2 1_555 1_555
Cd3A O10A_2 1_555 1_555
Cd3A O11A 1_555 1_555
Cd3A_3 O11A_2 1_555 1_555
Cd4_2 O8_3 1_555 1_555
Cd4_2 O9_4 1_555 1_555
Cd4_2 O10A 1_555 1_555
Cd4_2 O10_4 1_555 1_555
Cd4_3 O9_2 1_555 1_555
Cd4_4 O10_3 1_555 1_555
Cd4A O8A_2 1_555 1_555
Cd4A_2 O10A 1_555 1_555
Cd4A_2 O10_4 1_555 1_555
Cd4A_3 O10_2 1_555 1_555
Cd4A_3 O10A_2 1_555 1_555
P1_2 O2_2 1_555 1_555
P2_2 O5_2 1_555 1_555
P2_2 O6_2 1_555 1_555
P3A O9A 1_555 1_555
P4A O11A 1_555 1_555
P4A O12A 1_555 1_555
N1_2 C1_2 1_555 1_555
N1_2 C2_2 1_555 1_555
N2A C9A 1_555 1_555
N2A C10A 1_555 1_555
C7_2 C8_2 1_555 1_555
C15A C16A 1_555 1_555

#END
