
#######################################################################
#
#                 Cambridge Crystallographic Data Centre
#                                CCDC 
#
#######################################################################
#
# If this CIF has been generated from an entry in the Cambridge 
# Structural Database, then it will include bibliographic, chemical, 
# crystal, experimental, refinement or atomic coordinate data resulting 
# from the CCDC's data processing and validation procedures.
#
#######################################################################

data_ZAZDIP
_symmetry_cell_setting           monoclinic
_symmetry_space_group_name_H-M   'C 2/c'
_symmetry_Int_Tables_number      15
_space_group_name_Hall           '-C 2yn'
loop_
_symmetry_equiv_pos_site_id
_symmetry_equiv_pos_as_xyz
1 x,y,z
2 -x,y,1/2-z
3 1/2+x,1/2+y,z
4 1/2-x,1/2+y,1/2-z
5 -x,-y,-z
6 x,-y,1/2+z
7 1/2-x,1/2-y,-z
8 1/2+x,1/2-y,1/2+z
_cell_length_a                   20.984(3)
_cell_length_b                   21.858(3)
_cell_length_c                   20.929(3)
_cell_angle_alpha                90
_cell_angle_beta                 111.872(5)
_cell_angle_gamma                90
_cell_volume                     8908.48
loop_
_atom_site_label
_atom_site_type_symbol
_atom_site_fract_x
_atom_site_fract_y
_atom_site_fract_z
Br1 Br 0.10583(4) -1.56112(4) 0.44831(4)
Br2 Br 0.90226(4) -1.13448(4) 0.97721(5)
Cu1 Cu 0.32575(5) -1.35657(4) 0.76346(5)
Cu2 Cu 0.10327(5) -1.59447(4) 0.56808(5)
Br3 Br 0.30684(4) -1.38613(4) 0.63023(5)
Cu3 Cu 0.79896(6) -1.08152(5) 0.97597(8)
N1 N 0.1163(3) -1.6819(3) 0.5588(3)
C1 C 0.0611(4) -1.7169(3) 0.5270(3)
C2 C 0.0699(4) -1.7785(3) 0.5184(4)
H1 H 0.0318 -1.8035 0.4978
C3 C 0.1355(4) -1.8034(3) 0.5403(4)
C4 C 0.1908(4) -1.7658(3) 0.5726(4)
H2 H 0.2351 -1.7817 0.5892
C5 C 0.1800(3) -1.7044(3) 0.5800(3)
N2 N 0.0043(3) -1.6220(3) 0.5237(3)
C6 C -0.0039(4) -1.6824(3) 0.5047(4)
C7 C -0.0685(4) -1.7051(3) 0.4675(4)
H3 H -0.0741 -1.7462 0.4554
C8 C -0.1240(4) -1.6673(4) 0.4486(4)
H4 H -0.1676 -1.6827 0.4238
C9 C -0.1159(4) -1.6067(4) 0.4660(4)
H5 H -0.1534 -1.5804 0.4525
C10 C -0.0514(4) -1.5856(4) 0.5036(4)
H6 H -0.0458 -1.5445 0.5158
N3 N 0.2077(3) -1.6011(3) 0.6141(3)
C11 C 0.2328(4) -1.6567(3) 0.6122(4)
C12 C 0.3031(4) -1.6682(4) 0.6348(4)
H7 H 0.3198 -1.7073 0.6326
C13 C 0.3476(4) -1.6186(4) 0.6610(4)
H8 H 0.3948 -1.6246 0.6782
C14 C 0.3214(4) -1.5614(4) 0.6612(4)
H9 H 0.3505 -1.5279 0.6763
C15 C 0.2502(4) -1.5537(4) 0.6385(4)
H10 H 0.2322 -1.5152 0.6404
N4 N 0.1724(3) -1.9941(3) 0.5169(3)
C16 C 0.1139(4) -1.9748(3) 0.5218(4)
H11 H 0.0814 -2.0038 0.5215
C17 C 0.0995(4) -1.9142(3) 0.5272(4)
H12 H 0.0572 -1.9031 0.5285
C18 C 0.1467(4) -1.8696(3) 0.5306(4)
C19 C 0.2058(4) -1.8889(3) 0.5246(4)
H13 H 0.2390 -1.8604 0.5253
C20 C 0.2172(4) -1.9502(3) 0.5176(4)
H14 H 0.2580 -1.9617 0.5131
N5 N 0.4088(3) -1.3065(3) 0.7940(3)
C21 C 0.4041(4) -1.2459(3) 0.7901(4)
C22 C 0.4623(3) -1.2092(3) 0.8147(3)
H15 H 0.4581 -1.1668 0.8119
C23 C 0.5271(3) -1.2363(3) 0.8437(3)
C24 C 0.5309(4) -1.3005(3) 0.8475(4)
H16 H 0.5732 -1.3202 0.8659
C25 C 0.4707(4) -1.3337(3) 0.8234(3)
N6 N 0.2855(3) -1.2702(3) 0.7430(3)
C26 C 0.3325(4) -1.2246(3) 0.7580(4)
C27 C 0.3131(4) -1.1644(4) 0.7427(4)
H17 H 0.3460 -1.1336 0.7543
C28 C 0.2440(5) -1.1505(4) 0.7100(5)
H18 H 0.2304 -1.1102 0.6981
C29 C 0.1962(4) -1.1957(5) 0.6954(4)
H19 H 0.1497 -1.1866 0.6748
C30 C 0.2179(4) -1.2554(4) 0.7118(4)
H20 H 0.1852 -1.2865 0.7012
N7 N 0.3996(3) -1.4213(3) 0.8069(3)
C31 C 0.4655(4) -1.4014(3) 0.8260(4)
C32 C 0.5200(4) -1.4413(4) 0.8495(4)
H21 H 0.5648 -1.4268 0.8633
C33 C 0.5075(5) -1.5027(4) 0.8525(5)
H22 H 0.5438 -1.5303 0.8661
C34 C 0.4410(5) -1.5235(4) 0.8353(5)
H23 H 0.4318 -1.5646 0.8393
C35 C 0.3889(5) -1.4813(4) 0.8122(5)
H24 H 0.3440 -1.4950 0.7995
N8 N 0.7123(3) -1.1269(3) 0.9293(3)
C36 C 0.7127(4) -1.1880(3) 0.9328(4)
H25 H 0.7547 -1.2074 0.9545
C37 C 0.6548(4) -1.2244(3) 0.9061(4)
H26 H 0.6588 -1.2666 0.9113
C38 C 0.5908(3) -1.1983(3) 0.8718(4)
C39 C 0.5898(4) -1.1349(3) 0.8652(4)
H27 H 0.5490 -1.1145 0.8414
C40 C 0.6508(4) -1.1028(3) 0.8949(4)
H28 H 0.6485 -1.0604 0.8902
O1 O 0.1967(4) -1.3513(3) 0.8063(4)
O2 O 0.2561(3) -1.4115(3) 0.7658(3)
O3 O 0.0939(3) -1.5158(2) 0.6031(3)
O4 O 0.0694(3) -1.5641(3) 0.6840(3)
C41 C 0.2118(5) -1.4028(4) 0.7892(4)
C42 C 0.1718(5) -1.4590(4) 0.7991(4)
H29 H 0.1869 -1.4950 0.7814
H30 H 0.1830 -1.4652 0.8479
C43 C 0.0940(4) -1.4530(4) 0.7632(4)
H31 H 0.0718 -1.4865 0.7773
H32 H 0.0790 -1.4150 0.7770
C44 C 0.0728(4) -1.4540(4) 0.6859(4)
H33 H 0.1011 -1.4251 0.6731
H34 H 0.0256 -1.4403 0.6650
C45 C 0.0790(4) -1.5173(3) 0.6560(4)
Cu3A Cu 0.20104(6) -2.08152(5) 0.52403(8)
N4A N 0.8276(3) -0.9941(3) 0.9831(3)
O5 O 0.6342(5) -0.8067(4) 0.8883(5)
O6 O 0.5109(12) 0.3262(19) 0.695(3)
O7? O 0.5052(12) 0.2706(13) 0.7268(15)
O8? O 0.5072(14) 0.268(3) 0.6719(17)
loop_
_geom_bond_atom_site_label_1
_geom_bond_atom_site_label_2
_geom_bond_site_symmetry_1
_geom_bond_site_symmetry_2
Br1 Cu2 1_555 1_555
Br2 Cu3 1_555 1_555
Cu1 Br3 1_555 1_555
Cu2 N1 1_555 1_555
Cu3 N8 1_555 1_555
N1 C1 1_555 1_555
C1 C2 1_555 1_555
C2 H1 1_555 1_555
C3 C2 1_555 1_555
C4 C3 1_555 1_555
H2 C4 1_555 1_555
C5 N1 1_555 1_555
N2 Cu2 1_555 1_555
C6 C1 1_555 1_555
C7 C6 1_555 1_555
H3 C7 1_555 1_555
C8 C7 1_555 1_555
H4 C8 1_555 1_555
C9 C8 1_555 1_555
H5 C9 1_555 1_555
C10 N2 1_555 1_555
H6 C10 1_555 1_555
N3 Cu2 1_555 1_555
C11 C5 1_555 1_555
C12 C11 1_555 1_555
H7 C12 1_555 1_555
C13 C12 1_555 1_555
H8 C13 1_555 1_555
C14 C13 1_555 1_555
H9 C14 1_555 1_555
C15 N3 1_555 1_555
H10 C15 1_555 1_555
N4 C16 1_555 1_555
C16 H11 1_555 1_555
C17 C16 1_555 1_555
H12 C17 1_555 1_555
C18 C3 1_555 1_555
C19 C18 1_555 1_555
H13 C19 1_555 1_555
C20 N4 1_555 1_555
H14 C20 1_555 1_555
N5 Cu1 1_555 1_555
C21 N5 1_555 1_555
C22 C21 1_555 1_555
H15 C22 1_555 1_555
C23 C22 1_555 1_555
C24 C23 1_555 1_555
H16 C24 1_555 1_555
C25 N5 1_555 1_555
N6 Cu1 1_555 1_555
C26 C21 1_555 1_555
C27 C26 1_555 1_555
H17 C27 1_555 1_555
C28 C27 1_555 1_555
H18 C28 1_555 1_555
C29 C28 1_555 1_555
H19 C29 1_555 1_555
C30 N6 1_555 1_555
H20 C30 1_555 1_555
N7 Cu1 1_555 1_555
C31 C25 1_555 1_555
C32 C31 1_555 1_555
H21 C32 1_555 1_555
C33 C32 1_555 1_555
H22 C33 1_555 1_555
C34 C33 1_555 1_555
H23 C34 1_555 1_555
C35 N7 1_555 1_555
H24 C35 1_555 1_555
N8 C36 1_555 1_555
C36 H25 1_555 1_555
C37 C36 1_555 1_555
H26 C37 1_555 1_555
C38 C23 1_555 1_555
C39 C38 1_555 1_555
H27 C39 1_555 1_555
C40 N8 1_555 1_555
H28 C40 1_555 1_555
O1 C41 1_555 1_555
O2 Cu1 1_555 1_555
O3 Cu2 1_555 1_555
O4 C45 1_555 1_555
C41 O2 1_555 1_555
C42 C41 1_555 1_555
H29 C42 1_555 1_555
H30 C42 1_555 1_555
C43 C42 1_555 1_555
H31 C43 1_555 1_555
H32 C43 1_555 1_555
C44 C43 1_555 1_555
H33 C44 1_555 1_555
H34 C44 1_555 1_555
C45 O3 1_555 1_555
Cu3A N4 1_555 1_555
N4A Cu3 1_555 1_555
C4 C5 1_555 1_555
N2 C6 1_555 1_555
C9 C10 1_555 1_555
N3 C11 1_555 1_555
C14 C15 1_555 1_555
C17 C18 1_555 1_555
C19 C20 1_555 1_555
C24 C25 1_555 1_555
N6 C26 1_555 1_555
C29 C30 1_555 1_555
N7 C31 1_555 1_555
C34 C35 1_555 1_555
C37 C38 1_555 1_555
C39 C40 1_555 1_555
C44 C45 1_555 1_555

#END
