
#######################################################################
#
#                 Cambridge Crystallographic Data Centre
#                                CCDC 
#
#######################################################################
#
# If this CIF has been generated from an entry in the Cambridge 
# Structural Database, then it will include bibliographic, chemical, 
# crystal, experimental, refinement or atomic coordinate data resulting 
# from the CCDC's data processing and validation procedures.
#
#######################################################################

data_ZAZDOV
_symmetry_cell_setting           monoclinic
_symmetry_space_group_name_H-M   'P 2/c'
_symmetry_Int_Tables_number      13
_space_group_name_Hall           '-P 2yc'
loop_
_symmetry_equiv_pos_site_id
_symmetry_equiv_pos_as_xyz
1 x,y,z
2 -x,y,1/2-z
3 -x,-y,-z
4 x,-y,1/2+z
_cell_length_a                   12.353(3)
_cell_length_b                   10.952(2)
_cell_length_c                   19.413(4)
_cell_angle_alpha                90
_cell_angle_beta                 102.469(6)
_cell_angle_gamma                90
_cell_volume                     2564.44
loop_
_atom_site_label
_atom_site_type_symbol
_atom_site_fract_x
_atom_site_fract_y
_atom_site_fract_z
Br1 Br -0.32186(3) -0.34088(3) 0.255800(16)
Cu1 Cu -0.5000 0.23887(4) -0.2500
Cu2 Cu -0.30704(3) -0.49171(3) 0.150930(17)
N1 N -0.34000(19) -0.36102(19) 0.08227(12)
C1 C -0.2571(2) -0.2967(2) 0.06734(14)
C2 C -0.2773(2) -0.1964(3) 0.02264(15)
H1 H -0.2190 -0.1497 0.0137
C3 C -0.3876(2) -0.1669(2) -0.00872(15)
C4 C -0.4721(2) -0.2380(3) 0.00737(14)
H2 H -0.5457 -0.2201 -0.0127
C5 C -0.4463(2) -0.3355(2) 0.05337(14)
N2 N -0.4751(2) -0.5100(2) 0.12067(12)
C6 C -0.5249(2) -0.4229(2) 0.07422(14)
C7 C -0.6382(3) -0.4208(3) 0.04926(15)
H3 H -0.6710 -0.3613 0.0174
C8 C -0.7022(3) -0.5094(3) 0.07265(18)
H4 H -0.7787 -0.5100 0.0563
C9 C -0.6522(3) -0.5953(3) 0.11962(19)
H5 H -0.6941 -0.6551 0.1357
C10 C -0.5381(3) -0.5924(3) 0.14319(16)
H6 H -0.5045 -0.6503 0.1760
N3 N -0.15165(19) -0.4510(2) 0.13756(12)
C11 C -0.1464(2) -0.3481(2) 0.09931(14)
C12 C -0.0480(3) -0.3000(3) 0.09032(16)
H7 H -0.0466 -0.2286 0.0646
C13 C 0.0504(3) -0.3608(3) 0.12078(18)
H8 H 0.1185 -0.3297 0.1163
C14 C 0.0447(3) -0.4668(3) 0.15729(18)
H9 H 0.1089 -0.5096 0.1771
C15 C -0.0570(3) -0.5091(3) 0.16414(17)
H10 H -0.0601 -0.5817 0.1885
N4 N -0.4588(2) 0.1178(2) -0.16465(13)
C16 C -0.5325(3) 0.0320(3) -0.15919(19)
H11 H -0.6009 0.0339 -0.1907
C17 C -0.5131(3) -0.0597(3) -0.10923(18)
H12 H -0.5675 -0.1178 -0.1079
C18 C -0.4122(2) -0.0654(3) -0.06083(15)
C19 C -0.3360(3) 0.0261(3) -0.06547(16)
H13 H -0.2679 0.0281 -0.0336
C20 C -0.3617(3) 0.1143(3) -0.11762(16)
H14 H -0.3091 0.1739 -0.1202
O1 O -0.0329(3) -1.0144(3) 0.43481(13)
H15 H -0.013(4) -1.014(4) 0.4709(17)
O2 O -0.0860(2) -0.8215(2) 0.43199(12)
O3 O -0.26516(19) -0.63491(18) 0.20807(11)
O4 O -0.27935(19) -0.7336(2) 0.10657(10)
C21 C -0.1202(3) -0.9326(3) 0.32495(15)
C22 C -0.1633(2) -0.8313(2) 0.28609(15)
H16 H -0.1664 -0.7571 0.3089
C23 C -0.2021(2) -0.8383(2) 0.21355(15)
C24 C -0.1947(3) -0.9499(3) 0.18010(16)
H17 H -0.2166 -0.9554 0.1313
C25 C -0.1555(3) -1.0510(3) 0.21851(18)
H18 H -0.1542 -1.1257 0.1959
C26 C -0.1179(3) -1.0435(3) 0.29059(17)
H19 H -0.0909 -1.1128 0.3163
C27 C -0.0769(3) -0.9189(3) 0.40339(16)
C28 C -0.2522(2) -0.7291(3) 0.17229(15)
Br1C Br -0.32186(3) 0.34088(3) -0.244200(16)
Br1B Br -0.67814(3) 0.34088(3) -0.255800(16)
Br1A Br -0.67814(3) -0.34088(3) -0.755800(16)
Cu1B Cu -0.5000 -0.23887(4) 0.2500
Cu1B_2 Cu -0.5000 -0.23887(4) -0.7500
Cu2A Cu -0.69296(3) -0.49171(3) -0.650930(17)
N1A N -0.66000(19) -0.36102(19) -0.58227(12)
C1A C -0.7429(2) -0.2967(2) -0.56734(14)
C2A C -0.7227(2) -0.1964(3) -0.52264(15)
H1A H -0.7810 -0.1497 -0.5137
C3A C -0.6124(2) -0.1669(2) -0.49128(15)
C4A C -0.5279(2) -0.2380(3) -0.50737(14)
H2A H -0.4543 -0.2201 -0.4873
C5A C -0.5537(2) -0.3355(2) -0.55337(14)
N2A N -0.5249(2) -0.5100(2) -0.62067(12)
C6A C -0.4751(2) -0.4229(2) -0.57422(14)
C7A C -0.3618(3) -0.4208(3) -0.54926(15)
H3A H -0.3290 -0.3613 -0.5174
C8A C -0.2978(3) -0.5094(3) -0.57265(18)
H4A H -0.2213 -0.5100 -0.5563
C9A C -0.3478(3) -0.5953(3) -0.61962(19)
H5A H -0.3059 -0.6551 -0.6357
C10A C -0.4619(3) -0.5924(3) -0.64319(16)
H6A H -0.4955 -0.6503 -0.6760
N3A N -0.84835(19) -0.4510(2) -0.63756(12)
C11A C -0.8536(2) -0.3481(2) -0.59931(14)
C12A C -0.9520(3) -0.3000(3) -0.59032(16)
H7A H -0.9534 -0.2286 -0.5646
C13A C -1.0504(3) -0.3608(3) -0.62078(18)
H8A H -1.1185 -0.3297 -0.6163
C14A C -1.0447(3) -0.4668(3) -0.65729(18)
H9A H -1.1089 -0.5096 -0.6771
C15A C -0.9430(3) -0.5091(3) -0.66414(17)
H10A H -0.9399 -0.5817 -0.6885
N4A N -0.5412(2) 0.1178(2) -0.33535(13)
C16A C -0.4675(3) 0.0320(3) -0.34081(19)
H11A H -0.3991 0.0339 -0.3093
C17A C -0.4869(3) -0.0597(3) -0.39077(18)
H12A H -0.4325 -0.1178 -0.3921
C18A C -0.5878(2) -0.0654(3) -0.43917(15)
C19A C -0.6640(3) 0.0261(3) -0.43453(16)
H13A H -0.7321 0.0281 -0.4664
C20A C -0.6383(3) 0.1143(3) -0.38238(16)
H14A H -0.6909 0.1739 -0.3798
O1A O -0.9671(3) -1.0144(3) -0.93481(13)
H15A H -0.987(4) -1.014(4) -0.9709(17)
O2A O -0.9140(2) -0.8215(2) -0.93199(12)
O3A O -0.73484(19) -0.63491(18) -0.70807(11)
O4A O -0.72065(19) -0.7336(2) -0.60657(10)
C21A C -0.8798(3) -0.9326(3) -0.82495(15)
C22A C -0.8367(2) -0.8313(2) -0.78609(15)
H16A H -0.8336 -0.7571 -0.8089
C23A C -0.7979(2) -0.8383(2) -0.71355(15)
C24A C -0.8053(3) -0.9499(3) -0.68010(16)
H17A H -0.7834 -0.9554 -0.6313
C25A C -0.8445(3) -1.0510(3) -0.71851(18)
H18A H -0.8458 -1.1257 -0.6959
C26A C -0.8821(3) -1.0435(3) -0.79059(17)
H19A H -0.9091 -1.1128 -0.8163
C27A C -0.9231(3) -0.9189(3) -0.90339(16)
C28A C -0.7478(2) -0.7291(3) -0.67229(15)
O5 O -0.1382(3) 0.2638(6) 0.0123(2)
loop_
_geom_bond_atom_site_label_1
_geom_bond_atom_site_label_2
_geom_bond_site_symmetry_1
_geom_bond_site_symmetry_2
Br1 Cu2 1_555 1_555
Cu1 N4 1_555 1_555
Cu2 N1 1_555 1_555
N1 C1 1_555 1_555
C1 C2 1_555 1_555
C2 H1 1_555 1_555
C3 C2 1_555 1_555
C4 C3 1_555 1_555
H2 C4 1_555 1_555
C5 N1 1_555 1_555
N2 Cu2 1_555 1_555
C6 C5 1_555 1_555
C7 C6 1_555 1_555
H3 C7 1_555 1_555
C8 C7 1_555 1_555
H4 C8 1_555 1_555
C9 C8 1_555 1_555
H5 C9 1_555 1_555
C10 N2 1_555 1_555
H6 C10 1_555 1_555
N3 Cu2 1_555 1_555
C11 C1 1_555 1_555
C12 C11 1_555 1_555
H7 C12 1_555 1_555
C13 C12 1_555 1_555
H8 C13 1_555 1_555
C14 C13 1_555 1_555
H9 C14 1_555 1_555
C15 N3 1_555 1_555
H10 C15 1_555 1_555
N4 C16 1_555 1_555
C16 H11 1_555 1_555
C17 C16 1_555 1_555
H12 C17 1_555 1_555
C18 C3 1_555 1_555
C19 C18 1_555 1_555
H13 C19 1_555 1_555
C20 N4 1_555 1_555
H14 C20 1_555 1_555
O1 H15 1_555 1_555
O2 C27 1_555 1_555
O3 Cu2 1_555 1_555
O4 C28 1_555 1_555
C21 C22 1_555 1_555
C22 H16 1_555 1_555
C23 C22 1_555 1_555
C24 C23 1_555 1_555
H17 C24 1_555 1_555
C25 C24 1_555 1_555
H18 C25 1_555 1_555
C26 C21 1_555 1_555
H19 C26 1_555 1_555
C27 O1 1_555 1_555
C28 O3 1_555 1_555
Br1C Cu1 1_555 1_555
Br1B Cu1 1_555 1_555
Br1A Cu1B_2 1_555 1_555
Cu1B Br1 1_555 1_555
Cu2A Br1A 1_555 1_555
N1A Cu2A 1_555 1_555
C1A N1A 1_555 1_555
C2A C1A 1_555 1_555
H1A C2A 1_555 1_555
C3A C2A 1_555 1_555
C4A C3A 1_555 1_555
H2A C4A 1_555 1_555
C5A N1A 1_555 1_555
N2A Cu2A 1_555 1_555
C6A C5A 1_555 1_555
C7A C6A 1_555 1_555
H3A C7A 1_555 1_555
C8A C7A 1_555 1_555
H4A C8A 1_555 1_555
C9A C8A 1_555 1_555
H5A C9A 1_555 1_555
C10A N2A 1_555 1_555
H6A C10A 1_555 1_555
N3A Cu2A 1_555 1_555
C11A C1A 1_555 1_555
C12A C11A 1_555 1_555
H7A C12A 1_555 1_555
C13A C12A 1_555 1_555
H8A C13A 1_555 1_555
C14A C13A 1_555 1_555
H9A C14A 1_555 1_555
C15A N3A 1_555 1_555
H10A C15A 1_555 1_555
N4A Cu1 1_555 1_555
C16A N4A 1_555 1_555
H11A C16A 1_555 1_555
C17A C16A 1_555 1_555
H12A C17A 1_555 1_555
C18A C3A 1_555 1_555
C19A C18A 1_555 1_555
H13A C19A 1_555 1_555
C20A N4A 1_555 1_555
H14A C20A 1_555 1_555
O1A H15A 1_555 1_555
O2A C27A 1_555 1_555
O3A Cu2A 1_555 1_555
O4A C28A 1_555 1_555
C21A C22A 1_555 1_555
C22A H16A 1_555 1_555
C23A C22A 1_555 1_555
C24A C23A 1_555 1_555
H17A C24A 1_555 1_555
C25A C24A 1_555 1_555
H18A C25A 1_555 1_555
C26A C21A 1_555 1_555
H19A C26A 1_555 1_555
C27A O1A 1_555 1_555
C28A O3A 1_555 1_555
C4 C5 1_555 1_555
N2 C6 1_555 1_555
C9 C10 1_555 1_555
N3 C11 1_555 1_555
C14 C15 1_555 1_555
C17 C18 1_555 1_555
C19 C20 1_555 1_555
C21 C27 1_555 1_555
C23 C28 1_555 1_555
C25 C26 1_555 1_555
C4A C5A 1_555 1_555
N2A C6A 1_555 1_555
C9A C10A 1_555 1_555
N3A C11A 1_555 1_555
C14A C15A 1_555 1_555
C17A C18A 1_555 1_555
C19A C20A 1_555 1_555
C21A C27A 1_555 1_555
C23A C28A 1_555 1_555
C25A C26A 1_555 1_555

#END
