
#######################################################################
#
#                 Cambridge Crystallographic Data Centre
#                                CCDC 
#
#######################################################################
#
# If this CIF has been generated from an entry in the Cambridge 
# Structural Database, then it will include bibliographic, chemical, 
# crystal, experimental, refinement or atomic coordinate data resulting 
# from the CCDC's data processing and validation procedures.
#
#######################################################################

data_ZEBCUE
_symmetry_cell_setting           triclinic
_symmetry_space_group_name_H-M   'P -1'
_symmetry_Int_Tables_number      2
_space_group_name_Hall           '-P 1'
loop_
_symmetry_equiv_pos_site_id
_symmetry_equiv_pos_as_xyz
1 x,y,z
2 -x,-y,-z
_cell_length_a                   7.622(3)
_cell_length_b                   17.413(3)
_cell_length_c                   4.990(1)
_cell_angle_alpha                93.61(2)
_cell_angle_beta                 108.96(2)
_cell_angle_gamma                95.15(2)
_cell_volume                     620.831
loop_
_atom_site_label
_atom_site_type_symbol
_atom_site_fract_x
_atom_site_fract_y
_atom_site_fract_z
Cu1 Cu -0.29134(8) 0.33958(3) 0.5045(1)
Cu2 Cu -0.31294(8) 0.14698(3) 0.4996(1)
P1 P -0.1584(2) 0.25103(6) 1.0775(2)
F1 F 0.0607(4) 0.2508(2) 1.1972(6)
O1 O -0.1870(5) 0.3231(2) 0.9368(6)
O2 O -0.2235(6) 0.1756(2) 0.8967(6)
O3 O -0.2117(5) 0.2507(2) 1.3458(6)
N1 N -0.4209(5) 0.4299(2) 0.4795(7)
N2 N -0.4319(5) 0.0616(2) 0.2196(7)
C1 C -0.2262(6) 0.4929(2) 0.2446(9)
C2 C -0.3647(5) 0.4950(2) 0.3792(8)
C3 C -0.5571(5) 0.4343(2) 0.5981(8)
C4 C -0.6230(6) 0.3685(3) 0.7021(9)
C5 C -0.7594(6) 0.3726(3) 0.8235(10)
C6 C -0.1661(6) 0.5575(3) 0.1486(9)
C7 C -0.2245(6) -0.0204(3) 0.5084(9)
C8 C -0.3652(6) -0.0076(2) 0.2488(8)
C9 C -0.5691(6) 0.0696(2) -0.0260(8)
C10 C -0.6511(7) 0.1402(3) -0.0645(10)
C11 C -0.7877(7) 0.1487(3) -0.310(1)
C12 C -0.1518(7) -0.0888(3) 0.5365(10)
H1 H -0.1746 0.4455 0.2222
H2 H -0.5703 0.3206 0.6882
H3 H -0.8043 0.3274 0.8928
H4 H -0.0721 0.5562 0.0597
H5 H -0.1800 0.0201 0.6635
H6 H -0.6099 0.1817 0.0842
H7 H -0.8462 0.1960 -0.3322
H8 H -0.0585 -0.0965 0.7131
O3_2 O -0.2117(5) 0.2507(2) 0.3458(6)
C3A C -0.4429(5) 0.5657(2) 0.4019(8)
C2A C -0.6353(5) 0.5050(2) 0.6208(8)
C6A C -0.8339(6) 0.4425(3) 0.8514(9)
C5A C -0.2406(6) 0.6274(3) 0.1765(10)
C9A C -0.4309(6) -0.0696(2) 0.0260(8)
C8A C -0.6348(6) 0.0076(2) -0.2488(8)
C12A C -0.8482(7) 0.0888(3) -0.5365(10)
C11A C -0.2123(7) -0.1487(3) 0.310(1)
N1A N -0.5791(5) 0.5701(2) 0.5205(7)
C4A C -0.3770(6) 0.6315(3) 0.2979(9)
C1A C -0.7738(6) 0.5071(2) 0.7554(9)
H4A H -0.9279 0.4438 0.9403
H3A H -0.1957 0.6726 0.1072
N2A N -0.5681(5) -0.0616(2) -0.2196(7)
C10A C -0.3489(7) -0.1402(3) 0.0645(10)
C7A C -0.7755(6) 0.0204(3) -0.5084(9)
H8A H -0.9415 0.0965 -0.7131
H7A H -0.1538 -0.1960 0.3322
Cu1A Cu -0.70866(8) 0.66042(3) 0.4955(1)
H2A H -0.4297 0.6794 0.3118
H1A H -0.8254 0.5545 0.7778
Cu2A Cu -0.68706(8) -0.14698(3) -0.4996(1)
H6A H -0.3901 -0.1817 -0.0842
H5A H -0.8200 -0.0201 -0.6635
O1A O -0.8130(5) 0.6769(2) 0.0632(6)
O3A O -0.7883(5) 0.7493(2) 0.6542(6)
P1A P -0.8416(2) 0.74897(6) -0.0775(2)
Cu2A_2 Cu -0.68706(8) 0.85302(3) 0.5004(1)
F1A F -1.0607(4) 0.7492(2) -0.1972(6)
O2A O -0.7765(6) 0.8244(2) 0.1033(6)
O3A_2 O -0.7883(5) 0.7493(2) -0.3458(6)
Cu1_2 Cu -0.29134(8) 0.33958(3) 1.5045(1)
Cu2_2 Cu -0.31294(8) 0.14698(3) 1.4996(1)
N2A_2 N -0.5681(5) 0.9384(2) 0.7804(7)
Cu1A_2 Cu -0.70866(8) 0.66042(3) -0.5045(1)
Cu2A_3 Cu -0.68706(8) 0.85302(3) -0.4996(1)
loop_
_geom_bond_atom_site_label_1
_geom_bond_atom_site_label_2
_geom_bond_site_symmetry_1
_geom_bond_site_symmetry_2
Cu1 O1 1_555 1_555
Cu2 O2 1_555 1_555
P1 F1 1_555 1_555
O1 P1 1_555 1_555
O2 P1 1_555 1_555
O3 P1 1_555 1_555
N1 Cu1 1_555 1_555
N2 Cu2 1_555 1_555
C1 C2 1_555 1_555
C2 N1 1_555 1_555
C3 N1 1_555 1_555
C4 C3 1_555 1_555
C5 C4 1_555 1_555
C6 C1 1_555 1_555
C7 C8 1_555 1_555
C8 N2 1_555 1_555
C9 N2 1_555 1_555
C10 C9 1_555 1_555
C11 C10 1_555 1_555
C12 C7 1_555 1_555
H1 C1 1_555 1_555
H2 C4 1_555 1_555
H3 C5 1_555 1_555
H4 C6 1_555 1_555
H5 C7 1_555 1_555
H6 C10 1_555 1_555
H7 C11 1_555 1_555
H8 C12 1_555 1_555
O3_2 Cu1 1_555 1_555
C3A C2 1_555 1_555
C2A C3 1_555 1_555
C6A C5 1_555 1_555
C5A C6 1_555 1_555
C9A C8 1_555 1_555
C8A C9 1_555 1_555
C12A C11 1_555 1_555
C11A C12 1_555 1_555
N1A C3A 1_555 1_555
C4A C3A 1_555 1_555
C1A C2A 1_555 1_555
H4A C6A 1_555 1_555
H3A C5A 1_555 1_555
N2A C9A 1_555 1_555
C10A C9A 1_555 1_555
C7A C8A 1_555 1_555
H8A C12A 1_555 1_555
H7A C11A 1_555 1_555
Cu1A N1A 1_555 1_555
H2A C4A 1_555 1_555
H1A C1A 1_555 1_555
Cu2A N2A 1_555 1_555
H6A C10A 1_555 1_555
H5A C7A 1_555 1_555
O1A Cu1A 1_555 1_555
O3A Cu1A 1_555 1_555
P1A O1A 1_555 1_555
Cu2A_2 O3A 1_555 1_555
F1A P1A 1_555 1_555
O2A P1A 1_555 1_555
O3A_2 P1A 1_555 1_555
Cu1_2 O3 1_555 1_555
Cu2_2 O3 1_555 1_555
N2A_2 Cu2A_2 1_555 1_555
Cu1A_2 O3A_2 1_555 1_555
Cu2A_3 O3A_2 1_555 1_555
Cu2 O3_2 1_555 1_555
C2A N1A 1_555 1_555
C6A C1A 1_555 1_555
C5A C4A 1_555 1_555
C8A N2A 1_555 1_555
C12A C7A 1_555 1_555
C11A C10A 1_555 1_555
Cu2A_2 O2A 1_555 1_555

#END
