
#######################################################################
#
#                 Cambridge Crystallographic Data Centre
#                                CCDC 
#
#######################################################################
#
# If this CIF has been generated from an entry in the Cambridge 
# Structural Database, then it will include bibliographic, chemical, 
# crystal, experimental, refinement or atomic coordinate data resulting 
# from the CCDC's data processing and validation procedures.
#
#######################################################################

data_ZEBDOB
_symmetry_cell_setting           monoclinic
_symmetry_space_group_name_H-M   'C 2/c'
_symmetry_Int_Tables_number      15
_space_group_name_Hall           '-C 2yn'
loop_
_symmetry_equiv_pos_site_id
_symmetry_equiv_pos_as_xyz
1 x,y,z
2 -x,y,1/2-z
3 1/2+x,1/2+y,z
4 1/2-x,1/2+y,1/2-z
5 -x,-y,-z
6 x,-y,1/2+z
7 1/2-x,1/2-y,-z
8 1/2+x,1/2-y,1/2+z
_cell_length_a                   22.275(5)
_cell_length_b                   9.1138(18)
_cell_length_c                   22.091(4)
_cell_angle_alpha                90
_cell_angle_beta                 105.39(3)
_cell_angle_gamma                90
_cell_volume                     4323.88
loop_
_atom_site_label
_atom_site_type_symbol
_atom_site_fract_x
_atom_site_fract_y
_atom_site_fract_z
Cd1 Cd 0.73022(3) 0.25487(6) 0.16168(2)
O1 O 0.6498(3) 0.3992(6) 0.2094(3)
O2 O 0.6929(3) 0.1884(6) 0.2442(3)
O3 O 0.5586(3) 0.2702(6) 0.4579(3)
O4 O 0.6772(4) 0.6592(7) 0.3666(4)
O5 O 0.7334(3) 0.5106(7) 0.3278(3)
O8 O 0.7999(3) 0.3869(7) 0.2431(3)
H5 H 0.7944 0.4784 0.2363
H6 H 0.7928 0.3654 0.2780
N1 N 0.7377(3) 0.4511(6) 0.0979(3)
N2 N 0.6418(3) 0.1561(7) 0.0899(3)
C1 C 0.6603(4) 0.2990(10) 0.2487(4)
C2 C 0.6867(4) 0.5360(9) 0.3464(4)
C3 C 0.6321(4) 0.2993(8) 0.3036(4)
C4 C 0.6428(4) 0.4136(8) 0.3474(4)
C5 C 0.6153(4) 0.4074(9) 0.3977(4)
H7 H 0.6208 0.4843 0.4263
C6 C 0.5802(4) 0.2879(9) 0.4046(4)
C7 C 0.5705(5) 0.1749(11) 0.3619(5)
H8 H 0.5468 0.0939 0.3669
C8 C 0.5961(5) 0.1826(11) 0.3118(5)
H9 H 0.5888 0.1067 0.2826
C9 C 0.5298(4) 0.3901(9) 0.4775(4)
C10 C 0.4866(5) 0.4740(11) 0.4365(4)
H10 H 0.4777 0.4565 0.3936
C11 C 0.5438(4) 0.4147(10) 0.5408(4)
H11 H 0.5734 0.3573 0.5683
C12 C 0.7676(3) 0.4401(8) 0.0542(3)
H12 H 0.7860 0.3508 0.0493
C13 C 0.7729(4) 0.5546(8) 0.0151(3)
H13 H 0.7940 0.5405 -0.0155
C14 C 0.7475(4) 0.6884(8) 0.0208(3)
C15 C 0.7168(3) 0.6993(8) 0.0673(3)
H14 H 0.6986 0.7877 0.0737
C16 C 0.7130(3) 0.5801(8) 0.1042(3)
H15 H 0.6921 0.5908 0.1352
C17 C 0.6115(4) 0.0515(10) 0.1137(4)
H16 H 0.6284 0.0208 0.1548
C18 C 0.5572(4) -0.0107(10) 0.0802(4)
H17 H 0.5379 -0.0817 0.0987
C19 C 0.5304(4) 0.0311(8) 0.0183(4)
C20 C 0.5629(3) 0.1351(9) -0.0058(4)
H18 H 0.5477 0.1649 -0.0474
C21 C 0.6169(4) 0.1950(9) 0.0304(4)
H19 H 0.6371 0.2659 0.0127
Cd1D Cd 0.26978(3) 0.74513(6) 0.83832(2)
Cd1C Cd 0.76978(3) 0.75487(6) 0.33832(2)
Cd1G Cd 0.23022(3) 0.24513(6) 0.66168(2)
Cd1F Cd 0.76978(3) 1.24513(6) -0.16168(2)
Cd1D_2 Cd 0.26978(3) -0.25487(6) -0.16168(2)
O1D O 0.3502(3) 0.6008(6) 0.7906(3)
O2D O 0.3071(3) 0.8116(6) 0.7558(3)
O3D O 0.4414(3) 0.7298(6) 0.5421(3)
O4D O 0.3228(4) 0.3408(7) 0.6334(4)
O4C O 0.8228(4) 0.1592(7) 0.1334(4)
O4G O 0.1772(4) 0.8408(7) 0.8666(4)
O5D O 0.2666(3) 0.4894(7) 0.6722(3)
O5C O 0.7666(3) 0.0106(7) 0.1722(3)
O5G O 0.2334(3) 0.9894(7) 0.8278(3)
O8D O 0.2001(3) 0.6131(7) 0.7569(3)
H5D H 0.2056 0.5216 0.7637
H6D H 0.2072 0.6346 0.7220
N1F N 0.7623(3) 1.0489(6) -0.0979(3)
N1D N 0.2623(3) 0.5489(6) 0.9021(3)
N2D N 0.3582(3) -0.1561(7) -0.0899(3)
N2D_2 N 0.3582(3) 0.8439(7) 0.9101(3)
C1D C 0.3397(4) 0.7010(10) 0.7513(4)
C2D C 0.3133(4) 0.4640(9) 0.6536(4)
C3D C 0.3679(4) 0.7007(8) 0.6964(4)
C4D C 0.3572(4) 0.5864(8) 0.6526(4)
C5D C 0.3847(4) 0.5926(9) 0.6023(4)
H7D H 0.3792 0.5157 0.5737
C6D C 0.4198(4) 0.7121(9) 0.5954(4)
C7D C 0.4295(5) 0.8251(11) 0.6381(5)
H8D H 0.4532 0.9061 0.6331
C8D C 0.4039(5) 0.8174(11) 0.6882(5)
H9D H 0.4112 0.8933 0.7174
C9D C 0.4702(4) 0.6099(9) 0.5225(4)
C10D C 0.5134(5) 0.5260(11) 0.5635(4)
H10D H 0.5223 0.5435 0.6064
C11D C 0.4562(4) 0.5853(10) 0.4592(4)
H11D H 0.4266 0.6427 0.4317
C12F C 0.7324(3) 1.0599(8) -0.0542(3)
H12F H 0.7140 1.1492 -0.0493
C13F C 0.7271(4) 0.9454(8) -0.0151(3)
H13F H 0.7060 0.9595 0.0155
C14F C 0.7525(4) 0.8116(8) -0.0208(3)
C15F C 0.7832(3) 0.8007(8) -0.0673(3)
H14F H 0.8014 0.7123 -0.0737
C16F C 0.7870(3) 0.9199(8) -0.1042(3)
H15F H 0.8079 0.9092 -0.1352
C17D C 0.3885(4) -0.0515(10) -0.1137(4)
H16D H 0.3716 -0.0208 -0.1548
C18D C 0.4428(4) 0.0107(10) -0.0802(4)
H17D H 0.4621 0.0817 -0.0987
C19D C 0.4696(4) -0.0311(8) -0.0183(4)
C20D C 0.4371(3) -0.1351(9) 0.0058(4)
H18D H 0.4523 -0.1649 0.0474
C21D C 0.3831(4) -0.1950(9) -0.0304(4)
H19D H 0.3629 -0.2659 -0.0127
O6 O 0.5986(5) 0.6833(10) 0.1975(5)
H1 H 0.6139 0.5973 0.2010
H2 H 0.6199 0.7371 0.2268
O7 O 0.5367(9) 0.7867(15) 0.3334(8)
H3 H 0.5737 0.7537 0.3416
H4 H 0.5143 0.7293 0.3485
loop_
_geom_bond_atom_site_label_1
_geom_bond_atom_site_label_2
_geom_bond_site_symmetry_1
_geom_bond_site_symmetry_2
Cd1 O1 1_555 1_555
O1 C1 1_555 1_555
O2 Cd1 1_555 1_555
O3 C6 1_555 1_555
O4 C2 1_555 1_555
O5 C2 1_555 1_555
O6 H1 1_555 1_555
H2 O6 1_555 1_555
O7 H3 1_555 1_555
H4 O7 1_555 1_555
O8 Cd1 1_555 1_555
H5 O8 1_555 1_555
H6 O8 1_555 1_555
N1 Cd1 1_555 1_555
N2 Cd1 1_555 1_555
C1 O2 1_555 1_555
C2 C4 1_555 1_555
C3 C1 1_555 1_555
C4 C3 1_555 1_555
C5 C4 1_555 1_555
H7 C5 1_555 1_555
C6 C5 1_555 1_555
C7 C6 1_555 1_555
H8 C7 1_555 1_555
C8 C3 1_555 1_555
H9 C8 1_555 1_555
C9 O3 1_555 1_555
C10 C9 1_555 1_555
H10 C10 1_555 1_555
C11 C9 1_555 1_555
H11 C11 1_555 1_555
C12 N1 1_555 1_555
H12 C12 1_555 1_555
C13 C12 1_555 1_555
H13 C13 1_555 1_555
C14 C13 1_555 1_555
C15 C14 1_555 1_555
H14 C15 1_555 1_555
C16 N1 1_555 1_555
H15 C16 1_555 1_555
C17 N2 1_555 1_555
H16 C17 1_555 1_555
C18 C17 1_555 1_555
H17 C18 1_555 1_555
C19 C18 1_555 1_555
C20 C19 1_555 1_555
H18 C20 1_555 1_555
C21 N2 1_555 1_555
H19 C21 1_555 1_555
Cd1D O1D 1_555 1_555
Cd1C O4 1_555 1_555
Cd1G O4D 1_555 1_555
Cd1F N1F 1_555 1_555
Cd1D_2 N2D 1_555 1_555
O1D C1D 1_555 1_555
O2D Cd1D 1_555 1_555
O3D C6D 1_555 1_555
O4D C2D 1_555 1_555
O4C Cd1 1_555 1_555
O4G Cd1D 1_555 1_555
O5D Cd1G 1_555 1_555
O5C Cd1 1_555 1_555
O5G Cd1D 1_555 1_555
O8D Cd1D 1_555 1_555
H5D O8D 1_555 1_555
H6D O8D 1_555 1_555
N1F C12F 1_555 1_555
N1D Cd1D 1_555 1_555
N2D C17D 1_555 1_555
N2D_2 Cd1D 1_555 1_555
C1D O2D 1_555 1_555
C2D O5D 1_555 1_555
C3D C1D 1_555 1_555
C4D C2D 1_555 1_555
C5D C4D 1_555 1_555
H7D C5D 1_555 1_555
C6D C5D 1_555 1_555
C7D C6D 1_555 1_555
H8D C7D 1_555 1_555
C8D C3D 1_555 1_555
H9D C8D 1_555 1_555
C9D O3D 1_555 1_555
C10D C11 1_555 1_555
H10D C10D 1_555 1_555
C11D C10 1_555 1_555
H11D C11D 1_555 1_555
C12F H12F 1_555 1_555
C13F C12F 1_555 1_555
H13F C13F 1_555 1_555
C14F C14 1_555 1_555
C15F C14F 1_555 1_555
H14F C15F 1_555 1_555
C16F N1F 1_555 1_555
H15F C16F 1_555 1_555
C17D H16D 1_555 1_555
C18D C17D 1_555 1_555
H17D C18D 1_555 1_555
C19D C19 1_555 1_555
C20D C19D 1_555 1_555
H18D C20D 1_555 1_555
C21D N2D 1_555 1_555
H19D C21D 1_555 1_555
O5 Cd1C 1_555 1_555
C7 C8 1_555 1_555
C15 C16 1_555 1_555
C20 C21 1_555 1_555
C3D C4D 1_555 1_555
C7D C8D 1_555 1_555
C9D C10D 1_555 1_555
C9D C11D 1_555 1_555
C13F C14F 1_555 1_555
C15F C16F 1_555 1_555
C18D C19D 1_555 1_555
C20D C21D 1_555 1_555

#END
