
#######################################################################
#
#                 Cambridge Crystallographic Data Centre
#                                CCDC 
#
#######################################################################
#
# If this CIF has been generated from an entry in the Cambridge 
# Structural Database, then it will include bibliographic, chemical, 
# crystal, experimental, refinement or atomic coordinate data resulting 
# from the CCDC's data processing and validation procedures.
#
#######################################################################

data_ZEBKEW
_symmetry_cell_setting           monoclinic
_symmetry_space_group_name_H-M   'P 2/n'
_symmetry_Int_Tables_number      13
_space_group_name_Hall           '-P 2yac'
loop_
_symmetry_equiv_pos_site_id
_symmetry_equiv_pos_as_xyz
1 x,y,z
2 1/2-x,y,1/2-z
3 -x,-y,-z
4 1/2+x,-y,1/2+z
_cell_length_a                   8.791(2)
_cell_length_b                   10.797(2)
_cell_length_c                   11.826(3)
_cell_angle_alpha                90
_cell_angle_beta                 93.52(4)
_cell_angle_gamma                90
_cell_volume                     1120.36
loop_
_atom_site_label
_atom_site_type_symbol
_atom_site_fract_x
_atom_site_fract_y
_atom_site_fract_z
Mn1 Mn 0.2500 0.8918(1) 0.2500
Mn2 Mn 0.0000 1.0000 0.0000
O1 O 0.1052(2) 1.0249(2) 0.3169(2)
O2 O -0.0345(2) 1.0840(2) 0.1633(2)
C1 C 0.0059(3) 1.0937(3) 0.2651(2)
C2 C -0.0679(5) 1.1904(4) 0.3341(3)
O3 O 0.1139(2) 0.8545(2) 0.0923(2)
N1 N 0.3037(2) 0.7229(2) 0.1347(2)
C3 C 0.1766(3) 0.7488(3) 0.0684(2)
C4 C 0.1198(3) 0.6646(3) -0.0136(2)
C5 C 0.1913(4) 0.5535(3) -0.0217(3)
C6 C 0.3187(4) 0.5244(3) 0.0491(3)
C7 C 0.3675(3) 0.6131(3) 0.1241(2)
Cl1 Cl 0.5261(1) 0.5851(1) 0.2170(1)
O4 O 0.2210(3) 1.0919(2) -0.0015(2)
C8 C 0.2754(4) 1.1635(4) -0.0879(3)
H1 H 0.0351(47) 0.6868(37) -0.0608(36)
H2 H 0.1597(46) 0.4989(42) -0.0736(36)
H3 H 0.3612(47) 0.4518(41) 0.0463(35)
H4 H 0.2038(49) 1.1818(39) -0.1448(36)
H5 H -0.0764(50) 1.2625(42) 0.2941(37)
H6 H -0.0125(47) 1.2087(38) 0.4061(37)
H7 H 0.3627(51) 1.1526(42) -0.1020(37)
H8 H 0.3035(48) 1.2438(43) -0.0505(35)
H9 H -0.1642(49) 1.1537(40) 0.3531(35)
O2B O 0.0345(2) 0.9160(2) -0.1633(2)
C1B C -0.0059(3) 0.9063(3) -0.2651(2)
O1B O -0.1052(2) 0.9751(2) -0.3169(2)
Mn1B Mn -0.2500 1.1082(1) -0.2500
O3B O -0.1139(2) 1.1455(2) -0.0923(2)
O1A O 0.3948(2) 1.0249(2) 0.1831(2)
O3A O 0.3861(2) 0.8545(2) 0.4077(2)
N1A N 0.1963(2) 0.7229(2) 0.3653(2)
O4B O -0.2210(3) 0.9081(2) 0.0015(2)
C8B C -0.2754(4) 0.8365(4) 0.0879(3)
H4B H -0.2038(49) 0.8182(39) 0.1448(36)
H7B H -0.3627(51) 0.8474(42) 0.1020(37)
H8B H -0.3035(48) 0.7562(43) 0.0505(35)
C3B C -0.1766(3) 1.2512(3) -0.0684(2)
N1B N -0.3037(2) 1.2771(2) -0.1347(2)
C7B C -0.3675(3) 1.3869(3) -0.1241(2)
C6B C -0.3187(4) 1.4756(3) -0.0491(3)
C5B C -0.1913(4) 1.4465(3) 0.0217(3)
C4B C -0.1198(3) 1.3354(3) 0.0136(2)
H1B H -0.0351(47) 1.3132(37) 0.0608(36)
H2B H -0.1597(46) 1.5011(42) 0.0736(36)
H3B H -0.3612(47) 1.5482(41) -0.0463(35)
Cl1B Cl -0.5261(1) 1.4149(1) -0.2170(1)
C2B C 0.0679(5) 0.8096(4) -0.3341(3)
H5B H 0.0764(50) 0.7375(42) -0.2941(37)
H6B H 0.0125(47) 0.7913(38) -0.4061(37)
H9B H 0.1642(49) 0.8463(40) -0.3531(35)
loop_
_geom_bond_atom_site_label_1
_geom_bond_atom_site_label_2
_geom_bond_site_symmetry_1
_geom_bond_site_symmetry_2
Mn1 O1 1_555 1_555
Mn2 O2 1_555 1_555
O1 C1 1_555 1_555
O2 C1 1_555 1_555
C1 C2 1_555 1_555
C2 H5 1_555 1_555
O3 Mn1 1_555 1_555
N1 Mn1 1_555 1_555
C3 O3 1_555 1_555
C4 C3 1_555 1_555
C5 C4 1_555 1_555
C6 C5 1_555 1_555
C7 N1 1_555 1_555
Cl1 C7 1_555 1_555
O4 Mn2 1_555 1_555
C8 O4 1_555 1_555
H1 C4 1_555 1_555
H2 C5 1_555 1_555
H3 C6 1_555 1_555
H4 C8 1_555 1_555
H6 C2 1_555 1_555
H7 C8 1_555 1_555
H8 C8 1_555 1_555
H9 C2 1_555 1_555
O2B Mn2 1_555 1_555
C1B O2B 1_555 1_555
O1B C1B 1_555 1_555
Mn1B O1B 1_555 1_555
O3B Mn2 1_555 1_555
O1A Mn1 1_555 1_555
O3A Mn1 1_555 1_555
N1A Mn1 1_555 1_555
O4B Mn2 1_555 1_555
C8B O4B 1_555 1_555
H4B C8B 1_555 1_555
H7B C8B 1_555 1_555
H8B C8B 1_555 1_555
C3B O3B 1_555 1_555
N1B Mn1B 1_555 1_555
C7B N1B 1_555 1_555
C6B C7B 1_555 1_555
C5B C6B 1_555 1_555
C4B C3B 1_555 1_555
H1B C4B 1_555 1_555
H2B C5B 1_555 1_555
H3B C6B 1_555 1_555
Cl1B C7B 1_555 1_555
C2B C1B 1_555 1_555
H5B C2B 1_555 1_555
H6B C2B 1_555 1_555
H9B C2B 1_555 1_555
Mn2 O3 1_555 1_555
N1 C3 1_555 1_555
C6 C7 1_555 1_555
Mn1B O3B 1_555 1_555
C3B N1B 1_555 1_555
C5B C4B 1_555 1_555

#END
