
#######################################################################
#
#                 Cambridge Crystallographic Data Centre
#                                CCDC 
#
#######################################################################
#
# If this CIF has been generated from an entry in the Cambridge 
# Structural Database, then it will include bibliographic, chemical, 
# crystal, experimental, refinement or atomic coordinate data resulting 
# from the CCDC's data processing and validation procedures.
#
#######################################################################

data_ZEBMUO
_symmetry_cell_setting           triclinic
_symmetry_space_group_name_H-M   'P -1'
_symmetry_Int_Tables_number      2
_space_group_name_Hall           '-P 1'
loop_
_symmetry_equiv_pos_site_id
_symmetry_equiv_pos_as_xyz
1 x,y,z
2 -x,-y,-z
_cell_length_a                   9.198(3)
_cell_length_b                   9.994(2)
_cell_length_c                   32.651(4)
_cell_angle_alpha                98.03(2)
_cell_angle_beta                 94.88(2)
_cell_angle_gamma                95.66(2)
_cell_volume                     2942.6
loop_
_atom_site_label
_atom_site_type_symbol
_atom_site_fract_x
_atom_site_fract_y
_atom_site_fract_z
Cu1 Cu 0.6477(1) -0.5513(1) 0.3624(1)
O1 O 0.4751(2) -0.5911(2) 0.3212(1)
O2 O 0.3137(2) -0.7260(3) 0.3483(1)
O3 O -0.4369(2) -0.8660(2) 0.1450(1)
O4 O -0.4382(2) -0.8745(3) 0.2125(1)
O5 O 1.6048(3) -0.2676(3) 0.5740(1)
O6 O 1.4050(2) -0.4121(2) 0.5724(1)
O7 O 0.8511(2) -0.4876(2) 0.3835(1)
O8 O 0.9102(2) -0.4208(3) 0.3244(1)
N1 N 0.4862(3) -0.1753(3) 0.3654(1)
N2 N 0.5929(3) -0.3614(2) 0.3739(1)
N3 N 0.7010(3) -0.9472(3) 0.3128(1)
N4 N 0.6998(3) -0.7401(3) 0.3480(1)
C1 C 0.5005(3) -0.3043(3) 0.3502(1)
C2 C 0.6423(3) -0.2600(3) 0.4078(1)
C3 C 0.5745(4) -0.1435(3) 0.4025(1)
C4 C 0.6005(5) -0.0258(4) 0.4312(1)
C5 C 0.6987(6) -0.0284(4) 0.4648(1)
C6 C 0.7684(5) -0.1425(4) 0.4704(1)
C7 C 0.7409(4) -0.2614(3) 0.4426(1)
C8 C 0.6434(4) -0.8288(3) 0.3151(1)
C9 C 0.8054(3) -0.8071(3) 0.3685(1)
C10 C 0.8059(4) -0.9374(3) 0.3462(1)
C11 C 0.8986(5) -1.0291(5) 0.3583(2)
C12 C 0.9937(6) -0.9846(5) 0.3926(2)
C13 C 0.9950(5) -0.8546(5) 0.4155(2)
C14 C 0.8999(4) -0.7635(4) 0.4044(1)
C15 C 0.3516(3) -0.6622(3) 0.3204(1)
C16 C 0.2536(4) -0.6684(4) 0.2808(1)
C17 C 0.1000(3) -0.7349(4) 0.2779(1)
C18 C 0.0194(3) -0.7298(4) 0.2354(1)
C19 C -0.1364(3) -0.7952(4) 0.2301(1)
C20 C -0.2137(3) -0.7911(3) 0.1875(1)
C21 C -0.3726(3) -0.8484(3) 0.1825(1)
C22 C 1.4844(3) -0.3389(3) 0.5555(1)
C23 C 1.4560(3) -0.3200(3) 0.5107(1)
C24 C 1.3018(3) -0.3719(3) 0.4913(1)
C25 C 1.2775(3) -0.3538(3) 0.4459(1)
C26 C 1.1236(3) -0.4047(4) 0.4266(1)
C27 C 1.0958(3) -0.3933(4) 0.3814(1)
C28 C 0.9414(3) -0.4373(3) 0.3611(1)
Cu2 Cu -0.6476 -0.9382 0.1341
O9 O -0.4069(2) -0.7879(3) 0.0715(1)
O10 O -0.6217(2) -0.9161(2) 0.0649(1)
O11 O -1.1470(2) -0.9916(2) -0.1208(1)
O12 O -1.0985(3) -0.9234(3) -0.1802(1)
N5 N -0.7112(3) -0.5405(3) 0.1791(1)
N6 N -0.7042(3) -0.7495(2) 0.1460(1)
N7 N -0.4857(3) -1.3097(3) 0.1398(1)
N8 N -0.5911(3) -1.1280(2) 0.1279(1)
C29 C -0.6427(3) -0.6532(3) 0.1763(1)
C30 C -0.8228(3) -0.6934(3) 0.1276(1)
C31 C -0.8278(4) -0.5624(3) 0.1486(1)
C32 C -0.9334(5) -0.4807(4) 0.1379(1)
C33 C -1.0357(5) -0.5353(5) 0.1057(2)
C34 C -1.0308(4) -0.6656(4) 0.0834(1)
C35 C -0.9251(3) -0.7459(3) 0.0938(1)
C36 C -0.5007(3) -1.1789(3) 0.1528(1)
C37 C -0.6451(3) -1.2354(3) 0.0959(1)
C38 C -0.5763(3) -1.3493(3) 0.1033(1)
C39 C -0.6036(4) -1.4720(4) 0.0766(1)
C40 C -0.7041(5) -1.4765(4) 0.0431(1)
C41 C -0.7736(4) -1.3644(4) 0.0351(1)
C42 C -0.7459(3) -1.2413(3) 0.0611(1)
C43 C -0.5312(3) -0.8462(3) 0.0503(1)
C44 C -0.5489(3) -0.8166(3) 0.0065(1)
C45 C -0.7000(3) -0.8693(3) -0.0154(1)
C46 C -0.7234(3) -0.8397(3) -0.0598(1)
C47 C -0.8737(3) -0.9008(4) -0.0801(1)
C48 C -0.9115(3) -0.8739(3) -0.1235(1)
C49 C -1.0643(3) -0.9344(3) -0.1433(1)
H1 H 0.4255 -0.1162 0.3529
H2 H 0.6740 -1.0250 0.2917
H3 H 0.4489 -0.3509 0.3246
H4 H 0.5524 0.0533 0.4276
H5 H 0.7200 0.0515 0.4853
H6 H 0.8374 -0.1384 0.4945
H7 H 0.7875 -0.3409 0.4468
H8 H 0.5690 -0.8099 0.2949
H9 H 0.8957 -1.1189 0.3431
H10 H 1.0615 -1.0442 0.4017
H11 H 1.0647 -0.8277 0.4396
H12 H 0.8992 -0.6757 0.4206
H13 H 1.1195 -0.2996 0.3786
H14 H 1.1604 -0.4477 0.3666
H15 H 1.0564 -0.3538 0.4415
H16 H 1.1052 -0.4989 0.4296
H17 H 1.3455 -0.4028 0.4307
H18 H 1.2956 -0.2588 0.4439
H19 H 1.2837 -0.4669 0.4933
H20 H 1.2338 -0.3229 0.5065
H21 H 1.4729 -0.2246 0.5090
H22 H 1.5237 -0.3677 0.4950
H23 H 0.3006 -0.7158 0.2589
H24 H 0.2478 -0.5763 0.2761
H25 H 0.1019 -0.8280 0.2820
H26 H 0.0491 -0.6883 0.2991
H27 H 0.0717 -0.7760 0.2145
H28 H 0.0190 -0.6364 0.2316
H29 H -0.1365 -0.8885 0.2341
H30 H -0.1895 -0.7484 0.2507
H31 H -0.1639 -0.8427 0.1671
H32 H -0.2079 -0.6981 0.1828
H33 H -0.6841 -0.4593 0.1988
H34 H -0.4235 -1.3655 0.1534
H35 H -0.5579 -0.6633 0.1944
H36 H -0.9345 -0.3905 0.1524
H37 H -1.1131 -0.4832 0.0980
H38 H -1.1036 -0.6992 0.0605
H39 H -0.9216 -0.8345 0.0784
H40 H -0.4486 -1.1275 0.1777
H41 H -0.5547 -1.5496 0.0816
H42 H -0.7272 -1.5601 0.0242
H43 H -0.8431 -1.3730 0.0110
H44 H -0.7934 -1.1636 0.0553
H45 H -0.5336 -0.7199 0.0070
H46 H -0.4766 -0.8588 -0.0088
H47 H -0.7143 -0.9660 -0.0159
H48 H -0.7717 -0.8277 0.0003
H49 H -0.6499 -0.8778 -0.0755
H50 H -0.7147 -0.7430 -0.0596
H51 H -0.9455 -0.8653 -0.0632
H52 H -0.8792 -0.9975 -0.0809
H53 H -0.9050 -0.7772 -0.1229
H54 H -0.8407 -0.9105 -0.1406
H55 H 1.6217(41) -0.2750(38) 0.5996(12)
H56 H -0.4045(50) -0.8101(46) 0.0944(14)
O11A O -0.8530(2) -1.0084(2) 0.1208(1)
Cu1A Cu 1.3523(1) -0.4487(1) 0.6376(1)
Cu2A Cu -1.3524 -1.0618 -0.1341
O6A O 0.5950(2) -0.5879(2) 0.4276(1)
O13 O 0.3354(3) 0.9696(3) 0.2387(1)
H57 H 0.4221(53) 1.0203(48) 0.2298(14)
H58 H 0.2671(55) 0.9680(48) 0.2200(15)
O14 O 0.2883(3) 0.9736(3) 0.3216(1)
H59 H 0.2950(54) 0.9803(50) 0.2969(16)
H60 H 0.2804(54) 1.0396(50) 0.3294(16)
O15 O 0.3451(3) 0.6795(3) 0.2434(1)
H61 H 0.2675(55) 0.6868(50) 0.2544(15)
H62 H 0.3649(55) 0.7586(50) 0.2396(15)
O16 O -0.2951(3) 0.5489(3) 0.1834(1)
H63 H -0.2273(54) 0.5903(50) 0.1894(15)
H64 H -0.3162(59) 0.5336(54) 0.2071(16)
O17 O -0.0787(3) 0.7678(3) 0.2198(1)
H65 H -0.0151(54) 0.7573(50) 0.2361(16)
H66 H -0.0175(52) 0.8243(49) 0.2034(15)
O18 O -0.3402(3) 0.5287(3) 0.2662(1)
H67 H -0.4200(54) 0.4796(49) 0.2760(15)
H68 H -0.2601(54) 0.5307(48) 0.2827(15)
O19 O -0.3389(3) 0.8344(3) 0.2521(1)
H69 H -0.2603(55) 0.8112(51) 0.2472(15)
H70 H -0.3577(55) 0.7510(51) 0.2557(15)
O20 O 0.1069(3) 0.7233(3) 0.2878(1)
H71 H 0.0396(53) 0.6665(48) 0.3032(14)
H72 H 0.1360(54) 0.7818(50) 0.3032(15)
loop_
_geom_bond_atom_site_label_1
_geom_bond_atom_site_label_2
_geom_bond_site_symmetry_1
_geom_bond_site_symmetry_2
Cu1 O1 1_555 1_555
O1 C15 1_555 1_555
O2 C15 1_555 1_555
O3 C21 1_555 1_555
O4 C21 1_555 1_555
O5 C22 1_555 1_555
O6 C22 1_555 1_555
O7 Cu1 1_555 1_555
O8 C28 1_555 1_555
N1 C1 1_555 1_555
N2 Cu1 1_555 1_555
N3 C8 1_555 1_555
N4 Cu1 1_555 1_555
C1 N2 1_555 1_555
C2 N2 1_555 1_555
C3 N1 1_555 1_555
C4 C3 1_555 1_555
C5 C4 1_555 1_555
C6 C5 1_555 1_555
C7 C2 1_555 1_555
C8 N4 1_555 1_555
C9 N4 1_555 1_555
C10 N3 1_555 1_555
C11 C10 1_555 1_555
C12 C11 1_555 1_555
C13 C12 1_555 1_555
C14 C9 1_555 1_555
C15 C16 1_555 1_555
C16 C17 1_555 1_555
C17 C18 1_555 1_555
C18 C19 1_555 1_555
C19 C20 1_555 1_555
C20 C21 1_555 1_555
C22 C23 1_555 1_555
C23 C24 1_555 1_555
C24 C25 1_555 1_555
C25 C26 1_555 1_555
C26 C27 1_555 1_555
C27 C28 1_555 1_555
C28 O7 1_555 1_555
Cu2 O3 1_555 1_555
O9 C43 1_555 1_555
O10 Cu2 1_555 1_555
O11 C49 1_555 1_555
O12 C49 1_555 1_555
N5 C29 1_555 1_555
N6 Cu2 1_555 1_555
N7 C36 1_555 1_555
N8 Cu2 1_555 1_555
C29 N6 1_555 1_555
C30 N6 1_555 1_555
C31 N5 1_555 1_555
C32 C31 1_555 1_555
C33 C32 1_555 1_555
C34 C33 1_555 1_555
C35 C30 1_555 1_555
C36 N8 1_555 1_555
C37 N8 1_555 1_555
C38 N7 1_555 1_555
C39 C38 1_555 1_555
C40 C39 1_555 1_555
C41 C40 1_555 1_555
C42 C37 1_555 1_555
C43 O10 1_555 1_555
C44 C43 1_555 1_555
C45 C44 1_555 1_555
C46 C45 1_555 1_555
C47 C46 1_555 1_555
C48 C47 1_555 1_555
C49 C48 1_555 1_555
O13 H57 1_555 1_555
O14 H59 1_555 1_555
O15 H61 1_555 1_555
O16 H63 1_555 1_555
O17 H65 1_555 1_555
O18 H67 1_555 1_555
O19 H69 1_555 1_555
O20 H71 1_555 1_555
H1 N1 1_555 1_555
H2 N3 1_555 1_555
H3 C1 1_555 1_555
H4 C4 1_555 1_555
H5 C5 1_555 1_555
H6 C6 1_555 1_555
H7 C7 1_555 1_555
H8 C8 1_555 1_555
H9 C11 1_555 1_555
H10 C12 1_555 1_555
H11 C13 1_555 1_555
H12 C14 1_555 1_555
H13 C27 1_555 1_555
H14 C27 1_555 1_555
H15 C26 1_555 1_555
H16 C26 1_555 1_555
H17 C25 1_555 1_555
H18 C25 1_555 1_555
H19 C24 1_555 1_555
H20 C24 1_555 1_555
H21 C23 1_555 1_555
H22 C23 1_555 1_555
H23 C16 1_555 1_555
H24 C16 1_555 1_555
H25 C17 1_555 1_555
H26 C17 1_555 1_555
H27 C18 1_555 1_555
H28 C18 1_555 1_555
H29 C19 1_555 1_555
H30 C19 1_555 1_555
H31 C20 1_555 1_555
H32 C20 1_555 1_555
H33 N5 1_555 1_555
H34 N7 1_555 1_555
H35 C29 1_555 1_555
H36 C32 1_555 1_555
H37 C33 1_555 1_555
H38 C34 1_555 1_555
H39 C35 1_555 1_555
H40 C36 1_555 1_555
H41 C39 1_555 1_555
H42 C40 1_555 1_555
H43 C41 1_555 1_555
H44 C42 1_555 1_555
H45 C44 1_555 1_555
H46 C44 1_555 1_555
H47 C45 1_555 1_555
H48 C45 1_555 1_555
H49 C46 1_555 1_555
H50 C46 1_555 1_555
H51 C47 1_555 1_555
H52 C47 1_555 1_555
H53 C48 1_555 1_555
H54 C48 1_555 1_555
H55 O5 1_555 1_555
H56 O9 1_555 1_555
H58 O13 1_555 1_555
H60 O14 1_555 1_555
H62 O15 1_555 1_555
H64 O16 1_555 1_555
H66 O17 1_555 1_555
H68 O18 1_555 1_555
H70 O19 1_555 1_555
H72 O20 1_555 1_555
O11A Cu2 1_555 1_555
Cu1A O6 1_555 1_555
Cu2A O11 1_555 1_555
O6A Cu1 1_555 1_555
C2 C3 1_555 1_555
C6 C7 1_555 1_555
C9 C10 1_555 1_555
C13 C14 1_555 1_555
C30 C31 1_555 1_555
C34 C35 1_555 1_555
C37 C38 1_555 1_555
C41 C42 1_555 1_555

#END
