
#######################################################################
#
#                 Cambridge Crystallographic Data Centre
#                                CCDC 
#
#######################################################################
#
# If this CIF has been generated from an entry in the Cambridge 
# Structural Database, then it will include bibliographic, chemical, 
# crystal, experimental, refinement or atomic coordinate data resulting 
# from the CCDC's data processing and validation procedures.
#
#######################################################################

data_ZEBNAX
_symmetry_cell_setting           monoclinic
_symmetry_space_group_name_H-M   'P 21/c'
_symmetry_Int_Tables_number      14
_space_group_name_Hall           '-P 2ybc'
loop_
_symmetry_equiv_pos_site_id
_symmetry_equiv_pos_as_xyz
1 x,y,z
2 -x,1/2+y,1/2-z
3 -x,-y,-z
4 x,1/2-y,1/2+z
_cell_length_a                   15.1589(9)
_cell_length_b                   8.7394(6)
_cell_length_c                   23.8358(17)
_cell_angle_alpha                90
_cell_angle_beta                 120.386(5)
_cell_angle_gamma                90
_cell_volume                     2724
loop_
_atom_site_label
_atom_site_type_symbol
_atom_site_fract_x
_atom_site_fract_y
_atom_site_fract_z
Cd1 Cd -0.02887(3) 0.43958(4) 0.824006(16)
O1 O 0.0941(2) 0.5873(4) 0.81003(16)
O2 O 0.1509(2) 0.4803(4) 0.90377(15)
O3 O 0.1162(3) 0.9248(4) 0.79834(18)
O4 O 0.1932(3) 0.8167(4) 0.75113(17)
O5 O 0.4553(3) 1.4314(4) 0.8352(2)
O6 O 0.0229(4) 0.1951(6) 0.8137(2)
H1 H -0.0276 0.1447 0.7858
H2 H 0.0671 0.2044 0.8015
N1 N 0.3774(3) 1.0102(5) 0.8706(2)
N2 N -0.1181(3) 0.6612(5) 0.8124(2)
N3 N -0.2368(3) 0.8027(5) 0.8133(2)
N4 N -0.1016(5) 1.2801(6) 0.9731(3)
N5 N -0.0432(3) 1.3582(6) 0.9105(2)
C1 C 0.1624(4) 0.5690(6) 0.8670(2)
C2 C 0.1862(4) 0.8476(7) 0.8003(3)
C3 C 0.2717(3) 0.7891(5) 0.8653(2)
C4 C 0.2609(3) 0.6572(5) 0.8948(2)
C5 C 0.3441(4) 0.6064(6) 0.9533(2)
H5 H 0.3372 0.5193 0.9731
C6 C 0.4360(4) 0.6829(6) 0.9820(2)
H6 H 0.4911 0.6458 1.0203
C7 C 0.4466(4) 0.8148(6) 0.9541(2)
H7 H 0.5083 0.8676 0.9736
C8 C 0.3638(4) 0.8677(5) 0.8964(2)
C9 C 0.3412(4) 1.2762(6) 0.8499(2)
H8 H 0.2984 1.3581 0.8445
C10 C 0.3190(4) 1.1357(6) 0.8639(2)
H9 H 0.2625 1.1245 0.8691
C11 C 0.4580(4) 1.0272(6) 0.8606(3)
H10 H 0.4963 0.9417 0.8630
C12 C 0.4837(4) 1.1644(7) 0.8474(3)
H11 H 0.5389 1.1708 0.8407
C13 C 0.4285(4) 1.3008(6) 0.8435(2)
C14 C -0.2031(4) 0.6610(6) 0.8143(3)
H12 H -0.2360 0.5729 0.8161
C15 C -0.0960(4) 0.8128(6) 0.8101(3)
H13 H -0.0397 0.8493 0.8085
C16 C -0.1691(5) 0.9000(7) 0.8104(3)
H14 H -0.1726 1.0063 0.8089
C17 C -0.3269(4) 0.8402(8) 0.8195(3)
H15 H -0.3710 0.7513 0.8078
H16 H -0.3653 0.9221 0.7895
C18 C -0.2332(5) 0.9864(8) 1.0127(3)
H17 H -0.2119 1.0175 1.0550
C19 C -0.2768(5) 0.8440(7) 0.9920(3)
H18 H -0.2857 0.7807 1.0202
C20 C -0.3073(4) 0.7948(7) 0.9298(3)
H19 H -0.3357 0.6979 0.9163
C21 C -0.2959(4) 0.8887(7) 0.8875(3)
C22 C -0.2540(5) 1.0328(7) 0.9089(3)
H20 H -0.2481 1.0980 0.8801
C23 C -0.2206(5) 1.0834(7) 0.9717(3)
C24 C -0.1750(7) 1.2413(8) 0.9940(4)
H23 H -0.2296 1.3164 0.9766
H24 H -0.1408 1.2462 1.0410
C25 C 0.0341(5) 1.2991(10) 0.9662(3)
H25 H 0.1019 1.2937 0.9764
C26 C -0.0009(7) 1.2495(11) 1.0044(3)
H26 H 0.0370 1.2029 1.0448
C27 C -0.1236(5) 1.3456(7) 0.9170(3)
H27 H -0.1887 1.3786 0.8861
Cd1A Cd 0.02887(3) 0.93958(4) 0.675994(16)
Cd1_2 Cd -0.02887(3) 1.43958(4) 0.824006(16)
O3A O -0.1162(3) 0.4248(4) 0.70166(18)
O4A O -0.1932(3) 0.3167(4) 0.74887(17)
N5_2 N -0.0432(3) 0.3582(6) 0.9105(2)
O7 O 0.6265(4) 0.4357(6) 0.8192(3)
H3 H 0.6276 0.3475 0.8048
H4 H 0.5735 0.4339 0.8233
O8 O 0.3767(4) 0.7065(6) 0.7661(3)
H21 H 0.3181 0.7308 0.7600
H22 H 0.4085 0.6334 0.7918
loop_
_geom_bond_atom_site_label_1
_geom_bond_atom_site_label_2
_geom_bond_site_symmetry_1
_geom_bond_site_symmetry_2
Cd1 O1 1_555 1_555
O1 C1 1_555 1_555
O2 Cd1 1_555 1_555
O3 C2 1_555 1_555
O4 C2 1_555 1_555
O5 C13 1_555 1_555
O6 Cd1 1_555 1_555
H1 O6 1_555 1_555
H2 O6 1_555 1_555
O7 H3 1_555 1_555
H4 O7 1_555 1_555
N1 C8 1_555 1_555
N2 Cd1 1_555 1_555
N3 C14 1_555 1_555
N4 C24 1_555 1_555
N5 C25 1_555 1_555
C1 O2 1_555 1_555
C2 C3 1_555 1_555
C3 C4 1_555 1_555
C4 C1 1_555 1_555
C5 C4 1_555 1_555
H5 C5 1_555 1_555
C6 C5 1_555 1_555
H6 C6 1_555 1_555
C7 C6 1_555 1_555
H7 C7 1_555 1_555
C8 C3 1_555 1_555
C9 H8 1_555 1_555
C10 N1 1_555 1_555
H9 C10 1_555 1_555
C11 N1 1_555 1_555
H10 C11 1_555 1_555
C12 C11 1_555 1_555
H11 C12 1_555 1_555
C13 C9 1_555 1_555
C14 N2 1_555 1_555
H12 C14 1_555 1_555
C15 N2 1_555 1_555
H13 C15 1_555 1_555
C16 N3 1_555 1_555
H14 C16 1_555 1_555
C17 N3 1_555 1_555
H15 C17 1_555 1_555
H16 C17 1_555 1_555
C18 H17 1_555 1_555
C19 C18 1_555 1_555
H18 C19 1_555 1_555
C20 C19 1_555 1_555
H19 C20 1_555 1_555
C21 C17 1_555 1_555
C22 C21 1_555 1_555
H20 C22 1_555 1_555
O8 H21 1_555 1_555
H22 O8 1_555 1_555
C23 C18 1_555 1_555
C24 C23 1_555 1_555
H23 C24 1_555 1_555
H24 C24 1_555 1_555
C25 H25 1_555 1_555
C26 N4 1_555 1_555
H26 C26 1_555 1_555
C27 N4 1_555 1_555
H27 C27 1_555 1_555
Cd1A O3 1_555 1_555
Cd1_2 N5 1_555 1_555
O3A Cd1 1_555 1_555
O4A Cd1 1_555 1_555
N5_2 Cd1 1_555 1_555
O4 Cd1A 1_555 1_555
N5 C27 1_555 1_555
C7 C8 1_555 1_555
C9 C10 1_555 1_555
C12 C13 1_555 1_555
C15 C16 1_555 1_555
C20 C21 1_555 1_555
C22 C23 1_555 1_555
C25 C26 1_555 1_555

#END
