
#######################################################################
#
#                 Cambridge Crystallographic Data Centre
#                                CCDC 
#
#######################################################################
#
# If this CIF has been generated from an entry in the Cambridge 
# Structural Database, then it will include bibliographic, chemical, 
# crystal, experimental, refinement or atomic coordinate data resulting 
# from the CCDC's data processing and validation procedures.
#
#######################################################################

data_ZEBNUP
_symmetry_cell_setting           triclinic
_symmetry_space_group_name_H-M   'P -1'
_symmetry_Int_Tables_number      2
_space_group_name_Hall           '-P 1'
loop_
_symmetry_equiv_pos_site_id
_symmetry_equiv_pos_as_xyz
1 x,y,z
2 -x,-y,-z
_cell_length_a                   6.813(1)
_cell_length_b                   8.273(1)
_cell_length_c                   16.719(2)
_cell_angle_alpha                93.44(1)
_cell_angle_beta                 97.05(1)
_cell_angle_gamma                96.19(1)
_cell_volume                     927.207
loop_
_atom_site_label
_atom_site_type_symbol
_atom_site_fract_x
_atom_site_fract_y
_atom_site_fract_z
Cu1 Cu 0.47773(12) 0.11376(10) 0.43961(4)
Cu2 Cu 0.51880(12) 0.37765(10) 0.55296(4)
I1 I 0.23911(6) 0.34549(5) 0.42896(2)
I2 I 0.76831(6) 0.15427(5) 0.56190(2)
N1 N 0.6099(6) 0.1056(5) 0.3357(3)
N2 N 0.7974(6) 0.1038(5) 0.1959(3)
C1 C 0.7953(6) 0.0636(6) 0.3350(3)
C2 C 0.8864(7) 0.0639(6) 0.2667(3)
C3 C 0.6106(6) 0.1401(6) 0.1955(3)
C4 C 0.5186(6) 0.1422(6) 0.2643(3)
C5 C 0.4957(7) 0.1792(6) 0.1155(3)
O1 O 0.6036(5) 0.1894(5) 0.0573(2)
O2 O 0.3226(5) 0.1965(6) 0.1130(3)
N3 N 0.3851(6) 0.3805(5) 0.6572(3)
N4 N 0.2219(6) 0.3971(5) 0.8018(3)
C6 C 0.2116(7) 0.4371(6) 0.6609(3)
C7 C 0.1299(7) 0.4461(6) 0.7332(3)
C8 C 0.3970(6) 0.3421(6) 0.7976(3)
C9 C 0.4791(6) 0.3335(6) 0.7251(3)
C10 C 0.5083(7) 0.2834(6) 0.8719(3)
O3 O 0.4155(6) 0.2672(5) 0.9316(2)
O4 O 0.6790(6) 0.2590(7) 0.8687(3)
H1 H 0.8785 0.0834 0.1512
H2 H 0.8650 0.0326 0.3842
H3 H 1.0193 0.0340 0.2695
H4 H 0.3852 0.1710 0.2610
H5 H 0.1416 0.4721 0.6128
H6 H 0.0048 0.4892 0.7341
H7 H 0.6061 0.2936 0.7242
H8 H 0.4679 0.2219 0.9719
I2A I 0.23169(6) -0.15427(5) 0.43810(2)
Cu2A Cu 0.48120(12) 0.62235(10) 0.44704(4)
I1A I 0.76089(6) 0.65451(5) 0.57104(2)
Cu1A Cu 0.52227(12) -0.11376(10) 0.56039(4)
O5 O 0.9733(4) 0.1584(3) 0.0722(1)
H9 H 1.0918 0.1102 0.0565
H10 H 1.0310 0.2559 0.1009
O6 O 0.0040(6) 0.5548(5) 0.9177(3)
H11 H 0.1063 0.5445 0.8753
H12 H -0.1452 0.5116 0.9052
O7 O 1.0110(5) 0.1291(4) 0.9336(2)
H13 H 1.1119 0.1950 0.9216
H14 H 0.9148 0.1845 0.9038
loop_
_geom_bond_atom_site_label_1
_geom_bond_atom_site_label_2
_geom_bond_site_symmetry_1
_geom_bond_site_symmetry_2
Cu1 I1 1_555 1_555
Cu2 I1 1_555 1_555
I1 Cu2A 1_555 1_555
I2 Cu1 1_555 1_555
N1 Cu1 1_555 1_555
N2 C2 1_555 1_555
C1 N1 1_555 1_555
C2 C1 1_555 1_555
C3 N2 1_555 1_555
C4 N1 1_555 1_555
C5 C3 1_555 1_555
O1 C5 1_555 1_555
O2 C5 1_555 1_555
N3 Cu2 1_555 1_555
N4 C7 1_555 1_555
C6 N3 1_555 1_555
C7 C6 1_555 1_555
C8 N4 1_555 1_555
C9 N3 1_555 1_555
C10 C8 1_555 1_555
O3 C10 1_555 1_555
O4 C10 1_555 1_555
O5 H9 1_555 1_555
O6 H11 1_555 1_555
O7 H13 1_555 1_555
H1 N2 1_555 1_555
H2 C1 1_555 1_555
H3 C2 1_555 1_555
H4 C4 1_555 1_555
H5 C6 1_555 1_555
H6 C7 1_555 1_555
H7 C9 1_555 1_555
H8 O3 1_555 1_555
H10 O5 1_555 1_555
H12 O6 1_555 1_555
H14 O7 1_555 1_555
I2A Cu1 1_555 1_555
Cu2A I1A 1_555 1_555
I1A Cu2 1_555 1_555
Cu1A I2 1_555 1_555
Cu2 I2 1_555 1_555
C3 C4 1_555 1_555
C8 C9 1_555 1_555
I2A Cu1A 1_555 1_555

#END
