
#######################################################################
#
#                 Cambridge Crystallographic Data Centre
#                                CCDC 
#
#######################################################################
#
# If this CIF has been generated from an entry in the Cambridge 
# Structural Database, then it will include bibliographic, chemical, 
# crystal, experimental, refinement or atomic coordinate data resulting 
# from the CCDC's data processing and validation procedures.
#
#######################################################################

data_ZEBNIF
_symmetry_cell_setting           monoclinic
_symmetry_space_group_name_H-M   'P 21/c'
_symmetry_Int_Tables_number      14
_space_group_name_Hall           '-P 2ybc'
loop_
_symmetry_equiv_pos_site_id
_symmetry_equiv_pos_as_xyz
1 x,y,z
2 -x,1/2+y,1/2-z
3 -x,-y,-z
4 x,1/2-y,1/2+z
_cell_length_a                   8.0033(5)
_cell_length_b                   20.0585(11)
_cell_length_c                   14.5833(9)
_cell_angle_alpha                90
_cell_angle_beta                 101.315(7)
_cell_angle_gamma                90
_cell_volume                     2295.61
loop_
_atom_site_label
_atom_site_type_symbol
_atom_site_fract_x
_atom_site_fract_y
_atom_site_fract_z
Zn1 Zn 0.42457(3) 0.294840(12) 0.716962(17)
O1 O 0.5920(2) 0.24015(9) 0.79685(11)
O2 O 0.4151(2) 0.22035(8) 0.89324(12)
O3 O 0.5444(2) 0.19080(8) 1.11521(11)
O4 O 0.3896(2) 0.10891(8) 1.03652(11)
O5 O 0.7326(3) -0.04453(14) 1.36919(15)
N1 N 0.7729(2) 0.05927(9) 1.13431(13)
N2 N 0.2043(2) 0.25003(9) 0.65801(13)
N3 N -0.3537(2) -0.12216(9) 0.72077(13)
C1 C 0.8394(3) 0.15853(13) 0.89268(18)
H1 H 0.8541 0.1795 0.8379
C2 C 0.9698(4) 0.12000(15) 0.9408(2)
H2 H 1.0722 0.1162 0.9200
C3 C 0.9463(3) 0.08714(14) 1.02023(18)
H3 H 1.0321 0.0601 1.0530
C4 C 0.7953(3) 0.09446(11) 1.05084(15)
C5 C 0.6643(3) 0.13522(10) 1.00497(14)
C6 C 0.6867(3) 0.16731(11) 0.92262(15)
C7 C 0.8225(4) 0.08712(14) 1.22032(17)
H4 H 0.8665 0.1302 1.2251
C8 C 0.8094(4) 0.05383(16) 1.29883(18)
H5 H 0.8444 0.0748 1.3562
C9 C 0.7434(4) -0.01282(16) 1.29729(19)
C10 C 0.6955(4) -0.03884(14) 1.2047(2)
H6 H 0.6529 -0.0820 1.1970
C11 C 0.7094(3) -0.00359(12) 1.12869(18)
H7 H 0.6743 -0.0228 1.0701
C12 C 0.5143(3) 0.14510(11) 1.05262(14)
C13 C 0.5510(3) 0.21226(10) 0.86831(15)
C14 C -0.3273(3) -0.12304(12) 0.63256(16)
H8 H -0.3447 -0.1628 0.5993
C15 C -0.3258(4) -0.06440(12) 0.76706(18)
H9 H -0.3417 -0.0624 0.8285
C16 C 0.0727(3) 0.24710(14) 0.70237(18)
H10 H 0.0891 0.2619 0.7639
C17 C -0.0839(3) 0.22344(14) 0.66156(18)
H11 H -0.1724 0.2242 0.6944
C18 C -0.1116(3) 0.19835(11) 0.57190(17)
C19 C 0.0228(4) 0.20188(13) 0.52627(19)
H12 H 0.0104 0.1860 0.4654
C20 C 0.1759(3) 0.22879(15) 0.57016(19)
H13 H 0.2633 0.2322 0.5368
C21 C -0.2815(3) 0.16867(12) 0.52915(18)
H14 H -0.2801 0.1552 0.4654
H15 H -0.3692 0.2023 0.5270
C22 C -0.1953(4) 0.05250(13) 0.5902(2)
H16 H -0.1799 0.0411 0.5278
H17 H -0.0867 0.0680 0.6255
C23 C -0.3258(3) 0.10817(12) 0.5841(2)
H18 H -0.3333 0.1222 0.6468
H19 H -0.4366 0.0912 0.5541
C24 C -0.2744(4) -0.00785(13) 0.7272(2)
H20 H -0.2566 0.0313 0.7618
C25 C -0.2761(3) -0.06824(12) 0.58910(17)
H21 H -0.2597 -0.0714 0.5279
C26 C -0.2489(3) -0.00859(12) 0.63638(18)
Zn1C Zn 0.42457(3) 0.205160(12) 1.216962(17)
Zn1A Zn -0.42457(3) -0.205160(12) 0.783038(17)
O3C O 0.5444(2) 0.30920(8) 0.61521(11)
N3A N 0.3537(2) 0.37784(9) 0.77923(13)
loop_
_geom_bond_atom_site_label_1
_geom_bond_atom_site_label_2
_geom_bond_site_symmetry_1
_geom_bond_site_symmetry_2
Zn1 O1 1_555 1_555
O1 C13 1_555 1_555
O2 C13 1_555 1_555
O3 C12 1_555 1_555
O4 C12 1_555 1_555
O5 C9 1_555 1_555
N1 C4 1_555 1_555
N2 Zn1 1_555 1_555
N3 C14 1_555 1_555
C1 H1 1_555 1_555
C2 C1 1_555 1_555
H2 C2 1_555 1_555
C3 C2 1_555 1_555
H3 C3 1_555 1_555
C4 C3 1_555 1_555
C5 C4 1_555 1_555
C6 C1 1_555 1_555
C7 N1 1_555 1_555
H4 C7 1_555 1_555
C8 C7 1_555 1_555
H5 C8 1_555 1_555
C9 C8 1_555 1_555
C10 C9 1_555 1_555
H6 C10 1_555 1_555
C11 N1 1_555 1_555
H7 C11 1_555 1_555
C12 C5 1_555 1_555
C13 C6 1_555 1_555
C14 H8 1_555 1_555
C15 N3 1_555 1_555
H9 C15 1_555 1_555
C16 N2 1_555 1_555
H10 C16 1_555 1_555
C17 C16 1_555 1_555
H11 C17 1_555 1_555
C18 C17 1_555 1_555
C19 C18 1_555 1_555
H12 C19 1_555 1_555
C20 N2 1_555 1_555
H13 C20 1_555 1_555
C21 C18 1_555 1_555
H14 C21 1_555 1_555
H15 C21 1_555 1_555
C22 H16 1_555 1_555
H17 C22 1_555 1_555
C23 C21 1_555 1_555
H18 C23 1_555 1_555
H19 C23 1_555 1_555
C24 C15 1_555 1_555
H20 C24 1_555 1_555
C25 C14 1_555 1_555
H21 C25 1_555 1_555
C26 C22 1_555 1_555
Zn1C O3 1_555 1_555
Zn1A N3 1_555 1_555
O3C Zn1 1_555 1_555
N3A Zn1 1_555 1_555
C5 C6 1_555 1_555
C10 C11 1_555 1_555
C19 C20 1_555 1_555
C22 C23 1_555 1_555
C24 C26 1_555 1_555
C25 C26 1_555 1_555

#END
