
#######################################################################
#
#                 Cambridge Crystallographic Data Centre
#                                CCDC 
#
#######################################################################
#
# If this CIF has been generated from an entry in the Cambridge 
# Structural Database, then it will include bibliographic, chemical, 
# crystal, experimental, refinement or atomic coordinate data resulting 
# from the CCDC's data processing and validation procedures.
#
#######################################################################

data_ZEBPED
_symmetry_cell_setting           triclinic
_symmetry_space_group_name_H-M   'P -1'
_symmetry_Int_Tables_number      2
_space_group_name_Hall           '-P 1'
loop_
_symmetry_equiv_pos_site_id
_symmetry_equiv_pos_as_xyz
1 x,y,z
2 -x,-y,-z
_cell_length_a                   10.5121(9)
_cell_length_b                   12.7592(11)
_cell_length_c                   14.1244(12)
_cell_angle_alpha                91.699(1)
_cell_angle_beta                 109.952(1)
_cell_angle_gamma                102.984(1)
_cell_volume                     1723.48
loop_
_atom_site_label
_atom_site_type_symbol
_atom_site_fract_x
_atom_site_fract_y
_atom_site_fract_z
O19 O 0.152(2) 0.0245(15) 0.7640(15)
H19 H 0.0827 -0.0189 0.7188
H20 H 0.1956 -0.0131 0.8058
O20 O 0.390(2) 0.4746(16) 0.2416(17)
H21 H 0.3128 0.4616 0.2519
H22 H 0.4245 0.5426 0.2533
O21 O 0.112(2) 0.4391(19) 0.2548(16)
H23 H 0.0605 0.3747 0.2373
H24 H 0.0587 0.4820 0.2371
O24 O 0.420(3) 0.112(3) 0.751(2)
H25 H 0.3378 0.1147 0.7220
H26 H 0.4621 0.1428 0.7132
Gd1 Gd 0.95827(10) 0.24915(8) 0.46771(7)
Gd2 Gd 0.58839(10) 0.24977(8) 0.52520(7)
Co1 Co 0.7841(3) 0.2746(2) -0.0031(2)
O1 O 0.8656(15) 0.2130(14) 0.1306(10)
O2 O 0.7088(16) 0.3378(13) 0.8609(11)
O3 O 0.6777(15) 0.3123(12) 0.6976(11)
O4 O 0.9196(14) 0.4323(12) 0.0576(10)
H1 H 0.9087 0.4854 0.0859
H2 H 1.0043 0.4432 0.0692
O5 O 0.6468(16) 0.1250(13) -0.0712(13)
H3 H 0.5632 0.0965 -0.0843
H4 H 0.6857 0.0751 -0.0691
N1 N 0.6442(19) 0.2974(14) 0.0793(13)
N2 N 1.0244(16) 0.1675(14) 0.8352(12)
H5 H 1.0844 0.1374 0.8244
C1 C 0.8569(18) 0.2469(16) 0.8169(13)
C2 C 0.7375(19) 0.2981(15) 0.7863(13)
C3 C 1.108(2) 0.1566(19) 1.0192(17)
C4 C 1.0137(19) 0.1856(17) 0.9248(15)
C5 C 0.9233(18) 0.2050(15) 0.7611(13)
N3 N 0.9146(17) 0.2351(14) 0.9170(12)
C6 C 0.9178(19) 0.1989(15) 0.6562(14)
O6 O 1.0272(14) 0.1871(12) 0.6406(11)
O7 O 0.8169(12) 0.2173(11) 0.5877(9)
O8 O 0.5170(15) 0.3042(13) 0.3528(12)
O9 O 0.8780(15) 0.2052(11) 0.2895(10)
O10 O 0.7254(14) 0.2736(11) 0.4035(10)
C7 C 0.6261(19) 0.3054(16) 0.2350(13)
C8 C 0.6272(17) 0.2926(14) 0.3376(13)
C9 C 0.7012(19) 0.2746(16) 0.1783(14)
C10 C 0.8255(19) 0.2319(16) 0.2030(13)
N4 N 0.5198(17) 0.3352(14) 0.1653(14)
H6 H 0.4525 0.3532 0.1778
C11 C 0.533(2) 0.3332(16) 0.0740(13)
C12 C 0.431(2) 0.3545(18) -0.0153(16)
C13 C 0.329(2) 0.4125(18) -0.0121(16)
H7 H 0.3314 0.4366 0.0514
C14 C 0.422(2) 0.325(2) -0.1157(17)
H8 H 0.4825 0.2866 -0.1263
N5 N 0.233(2) 0.4340(14) -0.0917(13)
C15 C 0.233(2) 0.406(2) -0.1807(17)
H9 H 0.1669 0.4234 -0.2366
C16 C 0.322(2) 0.354(2) -0.1988(18)
H10 H 0.3178 0.3367 -0.2646
N6 N 1.241(3) 0.0378(19) 1.1029(18)
C17 C 1.217(2) 0.1807(19) 1.2017(17)
H11 H 1.2379 0.2166 1.2656
C18 C 1.163(2) 0.071(2) 1.0204(18)
H12 H 1.1452 0.0327 0.9584
C19 C 1.263(3) 0.093(2) 1.1908(19)
H13 H 1.3143 0.0689 1.2497
C20 C 1.134(2) 0.2172(19) 1.1128(15)
H14 H 1.0993 0.2776 1.1157
O11 O 0.9996(14) 0.4046(11) 0.5840(10)
O12 O 1.0320(14) 0.5856(11) 0.6105(10)
O13 O 0.5572(15) 0.0913(10) 0.6095(9)
O14 O 1.3378(14) 0.1428(11) 0.4637(11)
O15 O 0.4471(15) -0.0859(11) 0.5814(10)
O16 O 0.8301(14) 0.0575(10) 0.4371(11)
H15 H 0.7506 0.0608 0.4319
H16 H 0.8485 0.0089 0.4726
O17 O 0.6920(17) 0.4415(12) 0.5442(12)
H17 H 0.7701 0.4319 0.5748
H18 H 0.7049 0.5003 0.5216
O18 O 1.4244(16) 0.3506(11) 0.5375(15)
C21 C 0.5038(19) 0.0009(15) 0.5555(14)
C22 C 1.010(2) 0.4968(16) 0.5560(14)
C23 C 1.248(2) 0.1841(16) 0.4755(14)
C24 C 1.296(2) 0.3071(18) 0.5156(15)
O22 O 1.1194(14) 0.1379(11) 0.4592(12)
O23 O 1.2015(15) 0.3507(12) 0.5170(13)
C22A C 0.990(2) 0.5032(16) 0.4440(14)
O11A O 1.0004(14) 0.5954(11) 0.4160(10)
O12A O 0.9680(14) 0.4144(11) 0.3895(10)
C21A C 0.4962(19) -0.0009(15) 0.4445(14)
O13A O 0.4428(15) -0.0913(10) 0.3905(9)
O15A O 0.5529(15) 0.0859(11) 0.4186(10)
Gd1A Gd 1.04173(10) 0.75085(8) 0.53229(7)
Gd2_2 Gd 1.58839(10) 0.24977(8) 0.52520(7)
Co1_2 Co 0.7841(3) 0.2746(2) 0.9969(2)
O14_2 O 0.3378(14) 0.1428(11) 0.4637(11)
O18_2 O 0.4244(16) 0.3506(11) 0.5375(15)
C23_2 C 0.248(2) 0.1841(16) 0.4755(14)
C24_2 C 0.296(2) 0.3071(18) 0.5156(15)
O22_2 O 0.1194(14) 0.1379(11) 0.4592(12)
O23_2 O 0.2015(15) 0.3507(12) 0.5170(13)
O2_2 O 0.7088(16) 0.3378(13) -0.1391(11)
O3_2 O 0.6777(15) 0.3123(12) -0.3024(11)
N2_2 N 1.0244(16) 0.1675(14) -0.1648(12)
H5_2 H 1.0844 0.1374 -0.1756
C1_2 C 0.8569(18) 0.2469(16) -0.1831(13)
C2_2 C 0.7375(19) 0.2981(15) -0.2137(13)
C3_2 C 1.108(2) 0.1566(19) 0.0192(17)
C4_2 C 1.0137(19) 0.1856(17) -0.0752(15)
C5_2 C 0.9233(18) 0.2050(15) -0.2389(13)
N3_2 N 0.9146(17) 0.2351(14) -0.0830(12)
C6_2 C 0.9178(19) 0.1989(15) -0.3438(14)
O6_2 O 1.0272(14) 0.1871(12) -0.3594(11)
O7_2 O 0.8169(12) 0.2173(11) -0.4123(9)
N6_2 N 1.241(3) 0.0378(19) 0.1029(18)
C17_2 C 1.217(2) 0.1807(19) 0.2017(17)
H11_2 H 1.2379 0.2166 0.2656
C18_2 C 1.163(2) 0.071(2) 0.0204(18)
H12_2 H 1.1452 0.0327 -0.0416
C19_2 C 1.263(3) 0.093(2) 0.1908(19)
H13_2 H 1.3143 0.0689 0.2497
C20_2 C 1.134(2) 0.2172(19) 0.1128(15)
H14_2 H 1.0993 0.2776 0.1157
O1A O 1.1344(15) 0.7870(14) 0.8694(10)
N1A N 1.3558(19) 0.7026(14) 0.9207(13)
O8A O 1.4830(15) 0.6958(13) 0.6472(12)
O9A O 1.1220(15) 0.7948(11) 0.7105(10)
O10A O 1.2746(14) 0.7264(11) 0.5965(10)
C7A C 1.3739(19) 0.6946(16) 0.7650(13)
C8A C 1.3728(17) 0.7074(14) 0.6624(13)
C9A C 1.2988(19) 0.7254(16) 0.8217(14)
C10A C 1.1745(19) 0.7681(16) 0.7970(13)
N4A N 1.4802(17) 0.6648(14) 0.8347(14)
H6A H 1.5475 0.6468 0.8222
C11A C 1.467(2) 0.6668(16) 0.9260(13)
C12A C 1.569(2) 0.6455(18) 1.0153(16)
C13A C 1.671(2) 0.5875(18) 1.0121(16)
H7A H 1.6686 0.5634 0.9486
C14A C 1.578(2) 0.675(2) 1.1157(17)
H8A H 1.5175 0.7134 1.1263
N5A N 1.767(2) 0.5660(14) 1.0917(13)
C15A C 1.767(2) 0.594(2) 1.1807(17)
H9A H 1.8331 0.5766 1.2366
C16A C 1.678(2) 0.646(2) 1.1988(18)
H10A H 1.6822 0.6633 1.2646
O16A O 1.1699(14) 0.9425(10) 0.5629(11)
H15A H 1.2494 0.9392 0.5681
H16A H 1.1515 0.9911 0.5274
O17_2 O 1.6920(17) 0.4415(12) 0.5442(12)
H17_2 H 1.7701 0.4319 0.5748
H18_2 H 1.7049 0.5003 0.5216
O4_2 O 0.9196(14) 0.4323(12) 1.0576(10)
H1_2 H 0.9087 0.4854 1.0859
H2_2 H 1.0043 0.4432 1.0692
O5_2 O 0.6468(16) 0.1250(13) 0.9288(13)
H3_2 H 0.5632 0.0965 0.9157
H4_2 H 0.6857 0.0751 0.9309
Gd2A Gd 0.41161(10) -0.24977(8) 0.47480(7)
O6A O 0.9728(14) 0.8129(12) 0.3594(11)
O7A O 1.1831(12) 0.7827(11) 0.4123(9)
O22A O 0.8806(14) 0.8621(11) 0.5408(12)
O23A O 0.7985(15) 0.6493(12) 0.4830(13)
O3_3 O 1.6777(15) 0.3123(12) 0.6976(11)
O8_2 O 1.5170(15) 0.3042(13) 0.3528(12)
O13_2 O 1.5572(15) 0.0913(10) 0.6095(9)
O15A_2 O 1.5529(15) 0.0859(11) 0.4186(10)
O7_3 O 1.8169(12) 0.2173(11) 0.5877(9)
O10_2 O 1.7254(14) 0.2736(11) 0.4035(10)
O1_2 O 0.8656(15) 0.2130(14) 1.1306(10)
N1_2 N 0.6442(19) 0.2974(14) 1.0793(13)
Gd1_2 Gd -0.04173(10) 0.24915(8) 0.46771(7)
Gd2_3 Gd 0.58839(10) 0.24977(8) -0.47480(7)
Gd1_3 Gd 0.95827(10) 0.24915(8) -0.53229(7)
Co1A Co 1.2159(3) 0.7254(2) 1.0031(2)
Gd2A_2 Gd 1.41161(10) 0.75023(8) 0.47480(7)
loop_
_geom_bond_atom_site_label_1
_geom_bond_atom_site_label_2
_geom_bond_site_symmetry_1
_geom_bond_site_symmetry_2
Gd1 O6 1_555 1_555
Gd2 O3 1_555 1_555
Co1 O1 1_555 1_555
O1 C10 1_555 1_555
O2 C2 1_555 1_555
O3 C2 1_555 1_555
O4 Co1 1_555 1_555
H1 O4 1_555 1_555
H2 O4 1_555 1_555
O5 Co1 1_555 1_555
H3 O5 1_555 1_555
H4 O5 1_555 1_555
N1 Co1 1_555 1_555
N2 H5 1_555 1_555
C1 C2 1_555 1_555
C3 C4 1_555 1_555
C4 N2 1_555 1_555
C5 N2 1_555 1_555
N3 C1 1_555 1_555
C6 C5 1_555 1_555
O6 C6 1_555 1_555
O7 Gd1 1_555 1_555
O8 Gd2 1_555 1_555
O9 Gd1 1_555 1_555
O10 Gd1 1_555 1_555
C7 C8 1_555 1_555
C8 O8 1_555 1_555
C9 N1 1_555 1_555
C10 O9 1_555 1_555
N4 C7 1_555 1_555
H6 N4 1_555 1_555
C11 N1 1_555 1_555
C12 C11 1_555 1_555
C13 C12 1_555 1_555
H7 C13 1_555 1_555
C14 C12 1_555 1_555
H8 C14 1_555 1_555
N5 C13 1_555 1_555
C15 N5 1_555 1_555
H9 C15 1_555 1_555
C16 C14 1_555 1_555
H10 C16 1_555 1_555
N6 C18 1_555 1_555
C17 H11 1_555 1_555
C18 C3 1_555 1_555
H12 C18 1_555 1_555
C19 N6 1_555 1_555
H13 C19 1_555 1_555
C20 C3 1_555 1_555
H14 C20 1_555 1_555
O11 Gd1 1_555 1_555
O12 C22 1_555 1_555
O13 Gd2 1_555 1_555
O14 C23 1_555 1_555
O15 C21 1_555 1_555
O16 Gd1 1_555 1_555
H15 O16 1_555 1_555
H16 O16 1_555 1_555
O17 Gd2 1_555 1_555
H17 O17 1_555 1_555
H18 O17 1_555 1_555
O18 C24 1_555 1_555
O19 H19 1_555 1_555
H20 O19 1_555 1_555
C21 O13 1_555 1_555
C22 O11 1_555 1_555
O20 H21 1_555 1_555
H22 O20 1_555 1_555
O21 H23 1_555 1_555
H24 O21 1_555 1_555
C23 C24 1_555 1_555
C24 O23 1_555 1_555
O22 Gd1 1_555 1_555
O23 Gd1 1_555 1_555
O24 H25 1_555 1_555
H26 O24 1_555 1_555
C22A C22 1_555 1_555
O11A C22A 1_555 1_555
O12A Gd1 1_555 1_555
C21A C21 1_555 1_555
O13A C21A 1_555 1_555
O15A Gd2 1_555 1_555
Gd1A O12 1_555 1_555
Gd2_2 O14 1_555 1_555
Co1_2 O2 1_555 1_555
O14_2 Gd2 1_555 1_555
O18_2 Gd2 1_555 1_555
C23_2 O14_2 1_555 1_555
C24_2 O18_2 1_555 1_555
O22_2 C23_2 1_555 1_555
O23_2 C24_2 1_555 1_555
O2_2 Co1 1_555 1_555
O3_2 C2_2 1_555 1_555
N2_2 H5_2 1_555 1_555
C1_2 C2_2 1_555 1_555
C2_2 O2_2 1_555 1_555
C3_2 C4_2 1_555 1_555
C4_2 N2_2 1_555 1_555
C5_2 N2_2 1_555 1_555
N3_2 Co1 1_555 1_555
C6_2 C5_2 1_555 1_555
O6_2 C6_2 1_555 1_555
O7_2 C6_2 1_555 1_555
N6_2 C18_2 1_555 1_555
C17_2 H11_2 1_555 1_555
C18_2 C3_2 1_555 1_555
H12_2 C18_2 1_555 1_555
C19_2 N6_2 1_555 1_555
H13_2 C19_2 1_555 1_555
C20_2 C3_2 1_555 1_555
H14_2 C20_2 1_555 1_555
O1A C10A 1_555 1_555
N1A C9A 1_555 1_555
O8A C8A 1_555 1_555
O9A Gd1A 1_555 1_555
O10A Gd1A 1_555 1_555
C7A C8A 1_555 1_555
C8A O10A 1_555 1_555
C9A C7A 1_555 1_555
C10A O9A 1_555 1_555
N4A C7A 1_555 1_555
H6A N4A 1_555 1_555
C11A N1A 1_555 1_555
C12A C11A 1_555 1_555
C13A C12A 1_555 1_555
H7A C13A 1_555 1_555
C14A C12A 1_555 1_555
H8A C14A 1_555 1_555
N5A C13A 1_555 1_555
C15A N5A 1_555 1_555
H9A C15A 1_555 1_555
C16A C14A 1_555 1_555
H10A C16A 1_555 1_555
O16A Gd1A 1_555 1_555
H15A O16A 1_555 1_555
H16A O16A 1_555 1_555
O17_2 Gd2_2 1_555 1_555
H17_2 O17_2 1_555 1_555
H18_2 O17_2 1_555 1_555
O4_2 Co1_2 1_555 1_555
H1_2 O4_2 1_555 1_555
H2_2 O4_2 1_555 1_555
O5_2 Co1_2 1_555 1_555
H3_2 O5_2 1_555 1_555
H4_2 O5_2 1_555 1_555
Gd2A O15 1_555 1_555
O6A Gd1A 1_555 1_555
O7A Gd1A 1_555 1_555
O22A Gd1A 1_555 1_555
O23A Gd1A 1_555 1_555
O3_3 Gd2_2 1_555 1_555
O8_2 Gd2_2 1_555 1_555
O13_2 Gd2_2 1_555 1_555
O15A_2 Gd2_2 1_555 1_555
O7_3 Gd2_2 1_555 1_555
O10_2 Gd2_2 1_555 1_555
O1_2 Co1_2 1_555 1_555
N1_2 Co1_2 1_555 1_555
Gd1_2 O22_2 1_555 1_555
Gd2_3 O3_2 1_555 1_555
Gd1_3 O6_2 1_555 1_555
Co1A O1A 1_555 1_555
Gd2A_2 O8A 1_555 1_555
Gd2 O7 1_555 1_555
Gd2 O10 1_555 1_555
C1 C5 1_555 1_555
C4 N3 1_555 1_555
N3 Co1_2 1_555 1_555
C6 O7 1_555 1_555
O10 C8 1_555 1_555
C7 C9 1_555 1_555
C9 C10 1_555 1_555
N4 C11 1_555 1_555
C15 C16 1_555 1_555
C17 C19 1_555 1_555
C17 C20 1_555 1_555
O18 Gd2_2 1_555 1_555
C23 O22 1_555 1_555
C22A O12A 1_555 1_555
O11A Gd1A 1_555 1_555
C21A O15A 1_555 1_555
O13A Gd2A 1_555 1_555
C23_2 C24_2 1_555 1_555
O23_2 Gd1_2 1_555 1_555
C1_2 N3_2 1_555 1_555
C1_2 C5_2 1_555 1_555
C4_2 N3_2 1_555 1_555
O7_2 Gd1_3 1_555 1_555
O7_2 Gd2_3 1_555 1_555
C17_2 C19_2 1_555 1_555
C17_2 C20_2 1_555 1_555
N1A Co1A 1_555 1_555
O10A Gd2A_2 1_555 1_555
C9A C10A 1_555 1_555
N4A C11A 1_555 1_555
C15A C16A 1_555 1_555
O7A Gd2A_2 1_555 1_555

#END
