
#######################################################################
#
#                 Cambridge Crystallographic Data Centre
#                                CCDC 
#
#######################################################################
#
# If this CIF has been generated from an entry in the Cambridge 
# Structural Database, then it will include bibliographic, chemical, 
# crystal, experimental, refinement or atomic coordinate data resulting 
# from the CCDC's data processing and validation procedures.
#
#######################################################################

data_ZEDGAS
_symmetry_cell_setting           triclinic
_symmetry_space_group_name_H-M   'P -1'
_symmetry_Int_Tables_number      2
_space_group_name_Hall           '-P 1'
loop_
_symmetry_equiv_pos_site_id
_symmetry_equiv_pos_as_xyz
1 x,y,z
2 -x,-y,-z
_cell_length_a                   10.182(2)
_cell_length_b                   10.773(2)
_cell_length_c                   20.706(4)
_cell_angle_alpha                89.93(3)
_cell_angle_beta                 77.78(3)
_cell_angle_gamma                62.19(3)
_cell_volume                     1950.87
loop_
_atom_site_label
_atom_site_type_symbol
_atom_site_fract_x
_atom_site_fract_y
_atom_site_fract_z
Mn1 Mn 0.68568(14) 0.10459(13) 0.30198(6)
Mn2 Mn 0.46764(13) 0.37328(13) 0.78120(6)
O1 O 0.6682(6) 0.2286(5) 0.2170(2)
H1 H 0.7238 0.2649 0.2150
H2 H 0.5831 0.2910 0.2153
O2 O 0.4465(6) 0.2168(6) 0.3451(3)
O3 O 0.7770(5) -0.0853(5) 0.2347(2)
H3 H 0.7664 -0.1561 0.2380
H4 H 0.7945 -0.0747 0.1952
O4 O 0.4316(7) 0.0346(7) 0.3074(3)
O5 O -0.2896(6) 0.2707(5) 0.3626(2)
O6 O 0.5732(5) 0.1505(5) 0.7813(2)
H5 H 0.5732 0.0942 0.7547
H6 H 0.6579 0.1162 0.7894
O7 O -0.0907(6) 0.1116(6) 0.2871(3)
O9 O 0.5631(6) 0.5082(5) 0.7905(2)
O10 O 0.7774(7) 0.3170(6) 0.7929(3)
O11 O 1.2541(6) 0.3524(6) 0.7736(2)
O12 O 1.2370(5) 0.5612(5) 0.7912(2)
N1 N 0.7645(8) -0.0272(7) 0.3855(3)
N2 N 0.5615(9) 0.1210(8) 0.4664(3)
H9 H 0.523(8) 0.153(8) 0.433(2)
N3 N 0.5258(7) 0.3691(7) 0.6722(3)
N4 N 0.3915(7) 0.3973(7) 0.8937(3)
N5 N 0.0890(10) 0.7661(8) 1.0753(3)
H10 H 0.083(9) 0.775(8) 1.1174(9)
N6 N -0.1676(11) 0.9176(8) 1.0990(4)
C1 C 0.3707(10) 0.1568(10) 0.3315(4)
C2 C 0.1998(9) 0.2407(9) 0.3507(4)
C3 C 0.1102(9) 0.1856(8) 0.3342(3)
H11 H 0.1549 0.0961 0.3111
C4 C -0.0501(9) 0.2693(9) 0.3534(4)
C5 C -0.1167(9) 0.4035(9) 0.3869(4)
H12 H -0.2226 0.4579 0.3984
C6 C -0.0276(10) 0.4569(10) 0.4033(4)
H13 H -0.0715 0.5468 0.4260
C7 C 0.1304(10) 0.3725(10) 0.3852(4)
H14 H 0.1915 0.4070 0.3969
C8 C -0.1522(10) 0.2151(10) 0.3332(5)
C9 C 0.7065(11) 0.0150(10) 0.4510(5)
C10 C 0.7847(12) -0.0466(11) 0.4978(5)
H15 H 0.7390 -0.0167 0.5428
C11 C 0.9307(14) -0.1524(13) 0.4777(6)
H16 H 0.9875 -0.1929 0.5089
C12 C 0.9963(12) -0.2010(11) 0.4099(6)
H17 H 1.0953 -0.2751 0.3954
C13 C 0.9090(12) -0.1353(11) 0.3657(4)
H18 H 0.9505 -0.1661 0.3205
C14 C 0.4743(9) 0.1810(9) 0.5345(4)
H19 H 0.4822 0.1049 0.5612
H20 H 0.3674 0.2391 0.5345
C15 C 0.4968(8) 0.2873(8) 0.6354(4)
H21 H 0.4510 0.2376 0.6581
C16 C 0.5288(8) 0.2695(8) 0.5659(4)
C17 C 0.5949(9) 0.3442(9) 0.5322(4)
H22 H 0.6200 0.3357 0.4860
C18 C 0.6224(9) 0.4305(9) 0.5683(4)
H23 H 0.6667 0.4820 0.5463
C19 C 0.5864(8) 0.4436(8) 0.6365(4)
H24 H 0.6043 0.5063 0.6593
C20 C 0.6985(11) 0.4485(11) 0.7944(4)
C21 C 0.7759(9) 0.5362(8) 0.8020(3)
C22 C 0.9340(9) 0.4743(8) 0.7898(3)
H25 H 0.9938 0.3784 0.7752
C23 C 1.0034(9) 0.5564(9) 0.7995(4)
C24 C 0.9173(9) 0.6976(9) 0.8191(4)
H26 H 0.9640 0.7523 0.8238
C25 C 0.7617(9) 0.7581(8) 0.8317(4)
H27 H 0.7029 0.8536 0.8472
C26 C 0.6904(9) 0.6815(8) 0.8222(4)
H28 H 0.5845 0.7261 0.8291
C27 C 1.1750(10) 0.4845(10) 0.7862(4)
C28 C 0.3569(9) 0.5132(9) 0.9306(4)
H29 H 0.3934 0.5724 0.9110
C29 C 0.2713(9) 0.5547(9) 0.9956(4)
C30 C 0.2183(10) 0.4655(10) 1.0222(4)
H30 H 0.1590 0.4876 1.0656
C31 C 0.2511(11) 0.3449(11) 0.9860(4)
H31 H 0.2154 0.2843 1.0044
C32 C 0.3385(10) 0.3140(9) 0.9214(4)
H32 H 0.3607 0.2318 0.8966
C33 C 0.2435(9) 0.6849(8) 1.0334(4)
H33 H 0.3159 0.6592 1.0612
H34 H 0.2632 0.7449 1.0021
C34 C -0.0371(13) 0.8491(10) 1.0535(5)
C35 C -0.0339(11) 0.8628(9) 0.9858(5)
H35 H 0.0564 0.8141 0.9532
C36 C -0.1645(15) 0.9479(12) 0.9702(5)
H36 H -0.1632 0.9612 0.9257
C37 C -0.3020(14) 1.0175(12) 1.0164(7)
H37 H -0.3936 1.0739 1.0047
C38 C -0.2932(13) 0.9974(11) 1.0807(6)
H38 H -0.3831 1.0437 1.1138
Mn1_2 Mn -0.31432(14) 0.10459(13) 0.30198(6)
Mn2_2 Mn 1.46764(13) 0.37328(13) 0.78120(6)
O5_2 O 0.7104(6) 0.2707(5) 0.3626(2)
O7_2 O 0.9093(6) 0.1116(6) 0.2871(3)
O11_2 O 0.2541(6) 0.3524(6) 0.7736(2)
O12_2 O 0.2370(5) 0.5612(5) 0.7912(2)
O8 O 0.8471(5) 0.0458(5) 0.8107(2)
H7 H 0.9222 -0.0045 0.7809
H8 H 0.8242 0.1285 0.8061
loop_
_geom_bond_atom_site_label_1
_geom_bond_atom_site_label_2
_geom_bond_site_symmetry_1
_geom_bond_site_symmetry_2
Mn1 O1 1_555 1_555
Mn2 O6 1_555 1_555
O1 H1 1_555 1_555
H2 O1 1_555 1_555
O2 Mn1 1_555 1_555
O3 Mn1 1_555 1_555
H3 O3 1_555 1_555
H4 O3 1_555 1_555
O4 C1 1_555 1_555
O5 C8 1_555 1_555
O6 H5 1_555 1_555
H6 O6 1_555 1_555
O7 C8 1_555 1_555
O8 H7 1_555 1_555
H8 O8 1_555 1_555
O9 Mn2 1_555 1_555
O10 C20 1_555 1_555
O11 C27 1_555 1_555
O12 C27 1_555 1_555
N1 Mn1 1_555 1_555
N2 H9 1_555 1_555
N3 Mn2 1_555 1_555
N4 Mn2 1_555 1_555
N5 H10 1_555 1_555
N6 C34 1_555 1_555
C1 O2 1_555 1_555
C2 C1 1_555 1_555
C3 C2 1_555 1_555
H11 C3 1_555 1_555
C4 C3 1_555 1_555
C5 C4 1_555 1_555
H12 C5 1_555 1_555
C6 C5 1_555 1_555
H13 C6 1_555 1_555
C7 C2 1_555 1_555
H14 C7 1_555 1_555
C8 C4 1_555 1_555
C9 N1 1_555 1_555
C10 C9 1_555 1_555
H15 C10 1_555 1_555
C11 C10 1_555 1_555
H16 C11 1_555 1_555
C12 C11 1_555 1_555
H17 C12 1_555 1_555
C13 N1 1_555 1_555
H18 C13 1_555 1_555
C14 N2 1_555 1_555
H19 C14 1_555 1_555
H20 C14 1_555 1_555
C15 N3 1_555 1_555
H21 C15 1_555 1_555
C16 C14 1_555 1_555
C17 C16 1_555 1_555
H22 C17 1_555 1_555
C18 C17 1_555 1_555
H23 C18 1_555 1_555
C19 N3 1_555 1_555
H24 C19 1_555 1_555
C20 O9 1_555 1_555
C21 C20 1_555 1_555
C22 C21 1_555 1_555
H25 C22 1_555 1_555
C23 C22 1_555 1_555
C24 C23 1_555 1_555
H26 C24 1_555 1_555
C25 C24 1_555 1_555
H27 C25 1_555 1_555
C26 C21 1_555 1_555
H28 C26 1_555 1_555
C27 C23 1_555 1_555
C28 N4 1_555 1_555
H29 C28 1_555 1_555
C29 C28 1_555 1_555
C30 C29 1_555 1_555
H30 C30 1_555 1_555
C31 C30 1_555 1_555
H31 C31 1_555 1_555
C32 N4 1_555 1_555
H32 C32 1_555 1_555
C33 N5 1_555 1_555
H33 C33 1_555 1_555
H34 C33 1_555 1_555
C34 N5 1_555 1_555
C35 C34 1_555 1_555
H35 C35 1_555 1_555
C36 C35 1_555 1_555
H36 C36 1_555 1_555
C37 C36 1_555 1_555
H37 C37 1_555 1_555
C38 N6 1_555 1_555
H38 C38 1_555 1_555
Mn1_2 O5 1_555 1_555
Mn2_2 O11 1_555 1_555
O5_2 Mn1 1_555 1_555
O7_2 Mn1 1_555 1_555
O11_2 Mn2 1_555 1_555
O12_2 Mn2 1_555 1_555
O7 Mn1_2 1_555 1_555
O12 Mn2_2 1_555 1_555
N2 C9 1_555 1_555
C6 C7 1_555 1_555
C12 C13 1_555 1_555
C15 C16 1_555 1_555
C18 C19 1_555 1_555
C25 C26 1_555 1_555
C29 C33 1_555 1_555
C31 C32 1_555 1_555
C37 C38 1_555 1_555

#END
