
#######################################################################
#
#                 Cambridge Crystallographic Data Centre
#                                CCDC 
#
#######################################################################
#
# If this CIF has been generated from an entry in the Cambridge 
# Structural Database, then it will include bibliographic, chemical, 
# crystal, experimental, refinement or atomic coordinate data resulting 
# from the CCDC's data processing and validation procedures.
#
#######################################################################

data_ZEDQUW
_symmetry_cell_setting           orthorhombic
_symmetry_space_group_name_H-M   'P 21 21 2'
_symmetry_Int_Tables_number      18
_space_group_name_Hall           'P 2 2ab'
loop_
_symmetry_equiv_pos_site_id
_symmetry_equiv_pos_as_xyz
1 x,y,z
2 -x,-y,z
3 1/2-x,1/2+y,-z
4 1/2+x,1/2-y,-z
_cell_length_a                   19.875(4)
_cell_length_b                   7.8394(16)
_cell_length_c                   8.8456(18)
_cell_angle_alpha                90
_cell_angle_beta                 90
_cell_angle_gamma                90
_cell_volume                     1378.22
loop_
_atom_site_label
_atom_site_type_symbol
_atom_site_fract_x
_atom_site_fract_y
_atom_site_fract_z
Ba1 Ba 0.768449(9) 0.73808(2) 0.66362(2)
S1 S 0.68413(4) 0.73712(10) 0.32078(8)
S2 S 0.42110(4) 0.76423(11) 0.14616(9)
O1 O 0.71505(12) 0.5845(3) 0.3864(3)
O2 O 0.71797(14) 0.5315(4) 0.8956(3)
H1 H 0.707(2) 0.582(6) 0.977(3)
H2 H 0.7539(15) 0.474(5) 0.908(5)
O3 O 0.68844(15) 0.9285(4) 0.8626(4)
H3 H 0.675(2) 1.019(4) 0.818(5)
H4 H 0.667(2) 0.914(6) 0.944(3)
O4 O 0.71320(12) 0.8874(3) 0.3953(3)
O5 O 0.68845(13) 0.7439(3) 0.1571(2)
O7 O 0.45867(13) 0.7835(5) 0.0066(3)
O9 O 0.37749(13) 0.9086(4) 0.1776(4)
O10 O 0.38304(14) 0.6064(4) 0.1506(4)
O11 O 0.62540(13) 0.6888(5) 0.6285(3)
H9 H 0.609(2) 0.672(8) 0.715(3)
O12 O 0.39502(12) 0.7373(5) 0.4789(3)
H10 H 0.396(3) 0.700(8) 0.569(3)
C1 C 0.59847(15) 0.7336(5) 0.3702(4)
C2 C 0.54951(16) 0.7536(5) 0.2581(4)
H11 H 0.5629 0.7677 0.1582
C3 C 0.48124(15) 0.7527(5) 0.2924(4)
C4 C 0.46195(18) 0.7358(6) 0.4438(4)
C5 C 0.50966(18) 0.7161(6) 0.5563(4)
H12 H 0.4961 0.7054 0.6564
C6 C 0.57849(17) 0.7120(5) 0.5201(4)
Ba1B Ba 0.731551(9) 0.23808(2) 0.33638(2)
Ba1B_2 Ba 0.731551(9) 1.23808(2) 0.33638(2)
Ba1C Ba 0.268449(9) 0.76192(2) 0.33638(2)
O1B O 0.78495(12) 1.0845(3) 0.6136(3)
O4B O 0.78680(12) 0.3874(3) 0.6047(3)
O9C O 0.87749(13) 0.5914(4) 0.8224(4)
O10C O 0.88304(14) 0.8936(4) 0.8494(4)
O12C O 0.89502(12) 0.7627(5) 0.5211(3)
H10C H 0.896(3) 0.800(8) 0.431(3)
O6 O 0.57287(17) 0.6278(5) 0.8961(4)
H5 H 0.5375 0.6777 0.9274
H6 H 0.5866 0.5609 0.9652
O8 O 0.36401(15) 0.7400(5) 0.7719(3)
H7 H 0.3994(15) 0.764(7) 0.821(4)
H8 H 0.341(2) 0.666(6) 0.820(5)
loop_
_geom_bond_atom_site_label_1
_geom_bond_atom_site_label_2
_geom_bond_site_symmetry_1
_geom_bond_site_symmetry_2
Ba1 O1 1_555 1_555
S1 O1 1_555 1_555
S2 O7 1_555 1_555
O1 Ba1B 1_555 1_555
O2 Ba1 1_555 1_555
H1 O2 1_555 1_555
H2 O2 1_555 1_555
O3 Ba1 1_555 1_555
H3 O3 1_555 1_555
H4 O3 1_555 1_555
O4 Ba1 1_555 1_555
O5 S1 1_555 1_555
O6 H5 1_555 1_555
H6 O6 1_555 1_555
O8 H7 1_555 1_555
H8 O8 1_555 1_555
O9 S2 1_555 1_555
O10 S2 1_555 1_555
O11 Ba1 1_555 1_555
H9 O11 1_555 1_555
O12 H10 1_555 1_555
C1 S1 1_555 1_555
C2 C1 1_555 1_555
H11 C2 1_555 1_555
C3 S2 1_555 1_555
C4 O12 1_555 1_555
C5 C4 1_555 1_555
H12 C5 1_555 1_555
C6 O11 1_555 1_555
Ba1B O4B 1_555 1_555
Ba1B_2 O4 1_555 1_555
Ba1C O9 1_555 1_555
O1B Ba1 1_555 1_555
O4B Ba1 1_555 1_555
O9C Ba1 1_555 1_555
O10C Ba1 1_555 1_555
O12C Ba1 1_555 1_555
H10C O12C 1_555 1_555
S1 O4 1_555 1_555
O10 Ba1C 1_555 1_555
O12 Ba1C 1_555 1_555
C1 C6 1_555 1_555
C2 C3 1_555 1_555
C3 C4 1_555 1_555
C5 C6 1_555 1_555
Ba1B_2 O1B 1_555 1_555

#END
