
#######################################################################
#
#                 Cambridge Crystallographic Data Centre
#                                CCDC 
#
#######################################################################
#
# If this CIF has been generated from an entry in the Cambridge 
# Structural Database, then it will include bibliographic, chemical, 
# crystal, experimental, refinement or atomic coordinate data resulting 
# from the CCDC's data processing and validation procedures.
#
#######################################################################

data_ZEDYOY
_symmetry_cell_setting           orthorhombic
_symmetry_space_group_name_H-M   'P m m a'
_symmetry_Int_Tables_number      51
_space_group_name_Hall           '-P 2a 2a'
loop_
_symmetry_equiv_pos_site_id
_symmetry_equiv_pos_as_xyz
1 x,y,z
2 1/2-x,-y,z
3 1/2+x,-y,-z
4 -x,y,-z
5 -x,-y,-z
6 1/2+x,y,-z
7 1/2-x,y,z
8 x,-y,z
_cell_length_a                   7.067(2)
_cell_length_b                   15.675(5)
_cell_length_c                   18.811(7)
_cell_angle_alpha                90
_cell_angle_beta                 90
_cell_angle_gamma                90
_cell_volume                     2083.79
loop_
_atom_site_label
_atom_site_type_symbol
_atom_site_fract_x
_atom_site_fract_y
_atom_site_fract_z
Cu1 Cu 0.5000 0.0000 0.0000
N1 N 0.4074(3) 0.15559(13) 0.08242(13)
N2 N 0.3433(3) 0.08890(12) 0.04673(11)
N3 N 0.2500 0.5360(16) 0.6701(3)
N4 N 0.2500 0.5687(7) 0.6036(3)
N5 N 0.2500 0.5000 0.2663(3)
C1 C 0.2500 0.1957(2) 0.1040(2)
C2 C 0.2500 0.2745(2) 0.1470(2)
C3 C 0.0900(6) 0.3106(3) 0.1686(3)
H1 H -0.0249 0.2855 0.1566
C4 C 0.0909(7) 0.3848(3) 0.2085(3)
H2 H -0.0236 0.4085 0.2228
C5 C 0.2500 0.4226(2) 0.2267(2)
C6 C 0.2500 0.5000 0.3386(3)
C7 C 0.2500 0.5763(3) 0.3783(3)
H3 H 0.2500 0.6284 0.3547
C8 C 0.2500 0.5748(4) 0.4520(3)
H4 H 0.2500 0.6263 0.4766
C9 C 0.2500 0.5000 0.4896(4)
C10 C 0.2500 0.5000 0.5620(6)
O1 O 0.2500 0.0000 -0.0922(3)
C11 C 0.2500 0.0000 -0.1568(6)
Cu1A Cu 0.0000 0.0000 0.0000
Cu1A_2 Cu 0.0000 1.0000 0.0000
Cu1_2 Cu 0.5000 1.0000 0.0000
N1F N 0.0926(3) 0.15559(13) 0.08242(13)
N1A N 0.0926(3) 0.84441(13) 0.08242(13)
N1G N 0.4074(3) 0.84441(13) 0.08242(13)
N2F N 0.1567(3) 0.08890(12) 0.04673(11)
N2A N 0.1567(3) 0.91110(12) 0.04673(11)
N2G N 0.3433(3) 0.91110(12) 0.04673(11)
N2C N 0.6567(3) 0.08890(12) -0.04673(11)
N2D N 0.6567(3) -0.08890(12) -0.04673(11)
N2G_2 N 0.3433(3) -0.08890(12) 0.04673(11)
N3A N 0.2500 0.4640(16) 0.6701(3)
N4A N 0.2500 0.4313(7) 0.6036(3)
C1A C 0.2500 0.8043(2) 0.1040(2)
C2A C 0.2500 0.7255(2) 0.1470(2)
C3A C 0.4100(6) 0.6894(3) 0.1686(3)
C3G C 0.0900(6) 0.6894(3) 0.1686(3)
C3F C 0.4100(6) 0.3106(3) 0.1686(3)
H1G H -0.0249 0.7145 0.1566
H1A H 0.5249 0.7145 0.1566
H1F H 0.5249 0.2855 0.1566
C4A C 0.4091(7) 0.6152(3) 0.2085(3)
C4G C 0.0909(7) 0.6152(3) 0.2085(3)
C4F C 0.4091(7) 0.3848(3) 0.2085(3)
H2G H -0.0236 0.5915 0.2228
H2A H 0.5236 0.5915 0.2228
H2F H 0.5236 0.4085 0.2228
C5A C 0.2500 0.5774(2) 0.2267(2)
C7A C 0.2500 0.4237(3) 0.3783(3)
H3A H 0.2500 0.3716 0.3547
C8A C 0.2500 0.4252(4) 0.4520(3)
H4A H 0.2500 0.3737 0.4766
O1B O 0.7500 0.0000 0.0922(3)
loop_
_geom_bond_atom_site_label_1
_geom_bond_atom_site_label_2
_geom_bond_site_symmetry_1
_geom_bond_site_symmetry_2
Cu1 N2 1_555 1_555
N1 N2 1_555 1_555
N2 N2F 1_555 1_555
N3 N4 1_555 1_555
N4 C10 1_555 1_555
N5 C5 1_555 1_555
C1 N1 1_555 1_555
C2 C1 1_555 1_555
C3 C2 1_555 1_555
H1 C3 1_555 1_555
C4 C3 1_555 1_555
H2 C4 1_555 1_555
C5 C4 1_555 1_555
C6 N5 1_555 1_555
C7 C6 1_555 1_555
H3 C7 1_555 1_555
C8 C7 1_555 1_555
H4 C8 1_555 1_555
C9 C8 1_555 1_555
C10 C9 1_555 1_555
O1 Cu1 1_555 1_555
C11 O1 1_555 1_555
Cu1A O1 1_555 1_555
Cu1A_2 N2A 1_555 1_555
Cu1_2 N2G 1_555 1_555
N1F C1 1_555 1_555
N1A N2A 1_555 1_555
N1G N2G 1_555 1_555
N2F Cu1A 1_555 1_555
N2A N2G 1_555 1_555
N2C Cu1 1_555 1_555
N2D Cu1 1_555 1_555
N2G_2 Cu1 1_555 1_555
N3A N3 1_555 1_555
N4A C10 1_555 1_555
C1A N1A 1_555 1_555
C2A C1A 1_555 1_555
C3A C2A 1_555 1_555
C3G C2A 1_555 1_555
C3F C2 1_555 1_555
H1G C3G 1_555 1_555
H1A C3A 1_555 1_555
H1F C3F 1_555 1_555
C4A C3A 1_555 1_555
C4G C3G 1_555 1_555
C4F C5 1_555 1_555
H2G C4G 1_555 1_555
H2A C4A 1_555 1_555
H2F C4F 1_555 1_555
C5A N5 1_555 1_555
C7A C6 1_555 1_555
H3A C7A 1_555 1_555
C8A C9 1_555 1_555
H4A C8A 1_555 1_555
O1B Cu1 1_555 1_555
N1F N2F 1_555 1_555
N1G C1A 1_555 1_555
N3A N4A 1_555 1_555
C3F C4F 1_555 1_555
C4A C5A 1_555 1_555
C4G C5A 1_555 1_555
C7A C8A 1_555 1_555

#END
