
#######################################################################
#
#                 Cambridge Crystallographic Data Centre
#                                CCDC 
#
#######################################################################
#
# If this CIF has been generated from an entry in the Cambridge 
# Structural Database, then it will include bibliographic, chemical, 
# crystal, experimental, refinement or atomic coordinate data resulting 
# from the CCDC's data processing and validation procedures.
#
#######################################################################

data_ZEDYIS
_symmetry_cell_setting           orthorhombic
_symmetry_space_group_name_H-M   'C m c m'
_symmetry_Int_Tables_number      63
_space_group_name_Hall           '-C 2n 2'
loop_
_symmetry_equiv_pos_site_id
_symmetry_equiv_pos_as_xyz
1 x,y,z
2 -x,-y,1/2+z
3 -x,y,1/2-z
4 x,-y,-z
5 1/2+x,1/2+y,z
6 1/2-x,1/2-y,1/2+z
7 1/2-x,1/2+y,1/2-z
8 1/2+x,1/2-y,-z
9 -x,-y,-z
10 x,y,1/2-z
11 x,-y,1/2+z
12 -x,y,z
13 1/2-x,1/2-y,-z
14 1/2+x,1/2+y,1/2-z
15 1/2+x,1/2-y,1/2+z
16 1/2-x,1/2+y,z
_cell_length_a                   31.552(6)
_cell_length_b                   37.319(7)
_cell_length_c                   7.1146(14)
_cell_angle_alpha                90
_cell_angle_beta                 90
_cell_angle_gamma                90
_cell_volume                     8377.36
loop_
_atom_site_label
_atom_site_type_symbol
_atom_site_fract_x
_atom_site_fract_y
_atom_site_fract_z
Cu1 Cu 0.0000 0.256125(16) 0.00000(5)
C1 C 0.2634(4) 0.5334(2) 0.2500
C2 C 0.2607(3) 0.49458(16) 0.2500
C3 C 0.2227(3) 0.47699(19) 0.2500
H1 H 0.1977 0.4903 0.2500
C4 C 0.2963(3) 0.47409(19) 0.2500
H2 H 0.3226 0.4853 0.2500
C5 C 0.2203(2) 0.44001(16) 0.2500
H3 H 0.1940 0.4288 0.2500
C6 C 0.29453(19) 0.43690(16) 0.2500
H4 H 0.3196 0.4238 0.2500
C7 C 0.25750(16) 0.41946(15) 0.2500
C8 C 0.21520(14) 0.36411(14) 0.2500
C9 C 0.19655(15) 0.35447(17) 0.0931(8)
H5 H 0.2079 0.3622 -0.0205
C10 C 0.16007(14) 0.33293(16) 0.0906(7)
H6 H 0.1504 0.3232 -0.0218
C11 C 0.13953(13) 0.32658(13) 0.2500
C12 C 0.09968(12) 0.30614(12) 0.2500
C13 C 0.29234(13) 0.36103(14) 0.2500
C14 C 0.30894(15) 0.34984(15) 0.0900(8)
H7 H 0.2966 0.3566 -0.0234
C15 C 0.34519(14) 0.32770(15) 0.0898(7)
H8 H 0.3560 0.3194 -0.0237
C16 C 0.40230(12) 0.29611(12) 0.2500
C17 C 0.36408(12) 0.31854(13) 0.2500
C18 C 0.0000 0.3387(2) -0.2500
C19 C 0.0000 0.17488(19) 0.2500
N1 N 0.2254(4) 0.5551(2) 0.2500
N2 N 0.2452(6) 0.5856(5) 0.2500
N3 N 0.2925(4) 0.5539(2) 0.2500
N4 N 0.2795(6) 0.5878(5) 0.2500
N5 N 0.25533(11) 0.38253(12) 0.2500
N6 N 0.04470(6) 0.27952(7) 0.1577(3)
N7 N 0.07898(7) 0.29608(7) 0.0954(3)
N8 N 0.45540(7) 0.26748(7) 0.1581(3)
N9 N 0.42228(7) 0.28532(7) 0.0949(4)
O1 O 0.0000 0.30008(11) -0.2500
O2 O 0.0000 0.21200(12) 0.2500
Cu1B Cu 0.0000 0.256125(16) 0.50000(5)
Cu1G Cu 0.5000 0.243875(16) 0.00000(5)
Cu1B_2 Cu 0.0000 0.256125(16) -0.50000(5)
Cu1E Cu 0.5000 0.243875(16) 0.50000(5)
Cu1G_2 Cu -0.5000 0.243875(16) 0.00000(5)
Cu1E_2 Cu -0.5000 0.243875(16) 0.50000(5)
C1B C -0.2634(4) 0.5334(2) 0.2500
C2B C -0.2607(3) 0.49458(16) 0.2500
C3B C -0.2227(3) 0.47699(19) 0.2500
H1B H -0.1977 0.4903 0.2500
C4B C -0.2963(3) 0.47409(19) 0.2500
H2B H -0.3226 0.4853 0.2500
C5B C -0.2203(2) 0.44001(16) 0.2500
H3B H -0.1940 0.4288 0.2500
C6B C -0.29453(19) 0.43690(16) 0.2500
H4B H -0.3196 0.4238 0.2500
C7B C -0.25750(16) 0.41946(15) 0.2500
C8B C -0.21520(14) 0.36411(14) 0.2500
C9I C 0.19655(15) 0.35447(17) 0.4069(8)
C9K C -0.19655(15) 0.35447(17) 0.0931(8)
C9B C -0.19655(15) 0.35447(17) 0.4069(8)
H5I H 0.2079 0.3622 0.5205
H5K H -0.2079 0.3622 -0.0205
H5B H -0.2079 0.3622 0.5205
C10I C 0.16007(14) 0.33293(16) 0.4094(7)
C10K C -0.16007(14) 0.33293(16) 0.0906(7)
C10B C -0.16007(14) 0.33293(16) 0.4094(7)
H6I H 0.1504 0.3232 0.5218
H6K H -0.1504 0.3232 -0.0218
H6B H -0.1504 0.3232 0.5218
C11B C -0.13953(13) 0.32658(13) 0.2500
C12B C -0.09968(12) 0.30614(12) 0.2500
C13B C -0.29234(13) 0.36103(14) 0.2500
C14I C 0.30894(15) 0.34984(15) 0.4100(8)
C14K C -0.30894(15) 0.34984(15) 0.0900(8)
C14B C -0.30894(15) 0.34984(15) 0.4100(8)
H7I H 0.2966 0.3566 0.5234
H7K H -0.2966 0.3566 -0.0234
H7B H -0.2966 0.3566 0.5234
C15I C 0.34519(14) 0.32770(15) 0.4102(7)
C15K C -0.34519(14) 0.32770(15) 0.0898(7)
C15B C -0.34519(14) 0.32770(15) 0.4102(7)
H8I H 0.3560 0.3194 0.5237
H8K H -0.3560 0.3194 -0.0237
H8B H -0.3560 0.3194 0.5237
C16B C -0.40230(12) 0.29611(12) 0.2500
C17B C -0.36408(12) 0.31854(13) 0.2500
N1B N -0.2254(4) 0.5551(2) 0.2500
N2B N -0.2452(6) 0.5856(5) 0.2500
N3B N -0.2925(4) 0.5539(2) 0.2500
N4B N -0.2795(6) 0.5878(5) 0.2500
N5B N -0.25533(11) 0.38253(12) 0.2500
N6I N 0.04470(6) 0.27952(7) 0.3423(3)
N6K N -0.04470(6) 0.27952(7) 0.1577(3)
N6B N -0.04470(6) 0.27952(7) 0.3423(3)
N7I N 0.07898(7) 0.29608(7) 0.4046(3)
N7K N -0.07898(7) 0.29608(7) 0.0954(3)
N7B N -0.07898(7) 0.29608(7) 0.4046(3)
N8I N 0.45540(7) 0.26748(7) 0.3419(3)
N8K N -0.45540(7) 0.26748(7) 0.1581(3)
N8B N -0.45540(7) 0.26748(7) 0.3419(3)
N8G N -0.04460(7) 0.23252(7) -0.1581(3)
N8L N 0.04460(7) 0.23252(7) -0.1581(3)
N8N N -0.04460(7) 0.23252(7) 0.6581(3)
N8E N 0.04460(7) 0.23252(7) 0.6581(3)
N9I N 0.42228(7) 0.28532(7) 0.4051(4)
N9K N -0.42228(7) 0.28532(7) 0.0949(4)
N9B N -0.42228(7) 0.28532(7) 0.4051(4)
O1_2 O 0.0000 0.30008(11) 0.7500
loop_
_geom_bond_atom_site_label_1
_geom_bond_atom_site_label_2
_geom_bond_site_symmetry_1
_geom_bond_site_symmetry_2
Cu1 N6 1_555 1_555
C1 C2 1_555 1_555
C2 C3 1_555 1_555
C3 H1 1_555 1_555
C4 C2 1_555 1_555
H2 C4 1_555 1_555
C5 C3 1_555 1_555
H3 C5 1_555 1_555
C6 C4 1_555 1_555
H4 C6 1_555 1_555
C7 C5 1_555 1_555
C8 C9 1_555 1_555
C9 H5 1_555 1_555
C10 C9 1_555 1_555
H6 C10 1_555 1_555
C11 C10 1_555 1_555
C12 C11 1_555 1_555
C13 C14 1_555 1_555
C14 H7 1_555 1_555
C15 C14 1_555 1_555
H8 C15 1_555 1_555
C16 C17 1_555 1_555
C17 C15 1_555 1_555
C18 O1 1_555 1_555
C19 O2 1_555 1_555
N1 C1 1_555 1_555
N2 N1 1_555 1_555
N3 C1 1_555 1_555
N4 N2 1_555 1_555
N5 C7 1_555 1_555
N6 N7 1_555 1_555
N7 C12 1_555 1_555
N8 N9 1_555 1_555
N9 C16 1_555 1_555
O1 Cu1 1_555 1_555
O2 Cu1 1_555 1_555
Cu1B O2 1_555 1_555
Cu1G N8 1_555 1_555
Cu1B_2 O1 1_555 1_555
Cu1E N8I 1_555 1_555
Cu1G_2 N8K 1_555 1_555
Cu1E_2 N8B 1_555 1_555
C1B C2B 1_555 1_555
C2B C3B 1_555 1_555
C3B H1B 1_555 1_555
C4B C2B 1_555 1_555
H2B C4B 1_555 1_555
C5B C3B 1_555 1_555
H3B C5B 1_555 1_555
C6B C4B 1_555 1_555
H4B C6B 1_555 1_555
C7B C5B 1_555 1_555
C8B C9K 1_555 1_555
C9I C8 1_555 1_555
C9K H5K 1_555 1_555
C9B C8B 1_555 1_555
H5I C9I 1_555 1_555
H5B C9B 1_555 1_555
C10I C11 1_555 1_555
C10K C9K 1_555 1_555
C10B C9B 1_555 1_555
H6I C10I 1_555 1_555
H6K C10K 1_555 1_555
H6B C10B 1_555 1_555
C11B C10K 1_555 1_555
C12B C11B 1_555 1_555
C13B C14K 1_555 1_555
C14I C13 1_555 1_555
C14K H7K 1_555 1_555
C14B C13B 1_555 1_555
H7I C14I 1_555 1_555
H7B C14B 1_555 1_555
C15I C17 1_555 1_555
C15K C14K 1_555 1_555
C15B C14B 1_555 1_555
H8I C15I 1_555 1_555
H8K C15K 1_555 1_555
H8B C15B 1_555 1_555
C16B C17B 1_555 1_555
C17B C15K 1_555 1_555
N1B C1B 1_555 1_555
N2B N1B 1_555 1_555
N3B C1B 1_555 1_555
N4B N2B 1_555 1_555
N5B C7B 1_555 1_555
N6I N6 1_555 1_555
N6K Cu1 1_555 1_555
N6B Cu1B 1_555 1_555
N7I C12 1_555 1_555
N7K C12B 1_555 1_555
N7B C12B 1_555 1_555
N8I N8 1_555 1_555
N8K N8B 1_555 1_555
N8B N9B 1_555 1_555
N8G Cu1 1_555 1_555
N8L Cu1 1_555 1_555
N8N Cu1B 1_555 1_555
N8E Cu1B 1_555 1_555
N9I C16 1_555 1_555
N9K C16B 1_555 1_555
N9B C16B 1_555 1_555
O1_2 Cu1B 1_555 1_555
C6 C7 1_555 1_555
C8 N5 1_555 1_555
C13 N5 1_555 1_555
N3 N4 1_555 1_555
Cu1B N6I 1_555 1_555
C6B C7B 1_555 1_555
C8B N5B 1_555 1_555
C9I C10I 1_555 1_555
C10B C11B 1_555 1_555
C13B N5B 1_555 1_555
C14I C15I 1_555 1_555
C15B C17B 1_555 1_555
N3B N4B 1_555 1_555
N6I N7I 1_555 1_555
N6K N6B 1_555 1_555
N6K N7K 1_555 1_555
N6B N7B 1_555 1_555
N8I N9I 1_555 1_555
N8K N9K 1_555 1_555

#END
