
#######################################################################
#
#                 Cambridge Crystallographic Data Centre
#                                CCDC 
#
#######################################################################
#
# If this CIF has been generated from an entry in the Cambridge 
# Structural Database, then it will include bibliographic, chemical, 
# crystal, experimental, refinement or atomic coordinate data resulting 
# from the CCDC's data processing and validation procedures.
#
#######################################################################

data_ZEDYAK
_symmetry_cell_setting           orthorhombic
_symmetry_space_group_name_H-M   'P m m a'
_symmetry_Int_Tables_number      51
_space_group_name_Hall           '-P 2a 2a'
loop_
_symmetry_equiv_pos_site_id
_symmetry_equiv_pos_as_xyz
1 x,y,z
2 1/2-x,-y,z
3 -x,y,-z
4 1/2+x,-y,-z
5 -x,-y,-z
6 1/2+x,y,-z
7 x,-y,z
8 1/2-x,y,z
_cell_length_a                   7.102(3)
_cell_length_b                   15.819(7)
_cell_length_c                   18.669(9)
_cell_angle_alpha                90
_cell_angle_beta                 90
_cell_angle_gamma                90
_cell_volume                     2097.4
loop_
_atom_site_label
_atom_site_type_symbol
_atom_site_fract_x
_atom_site_fract_y
_atom_site_fract_z
Cu1 Cu 0.5000 0.0000 0.0000
C1 C 0.2500 0.4231(4) 0.2248(4)
C2 C 0.4072(11) 0.3887(4) 0.2034(3)
H1 H 0.5209 0.4147 0.2146
C3 C 0.4085(10) 0.3113(4) 0.1627(4)
H2 H 0.5221 0.2862 0.1501
C4 C 0.2500 0.2768(4) 0.1436(4)
C5 C 0.2500 0.1971(3) 0.1028(3)
C6 C 0.2500 0.5000 0.3354(5)
C7 C 0.2500 0.4258(6) 0.3760(4)
H3 H 0.2500 0.3740 0.3524
C8 C 0.2500 0.4268(7) 0.4493(4)
H4 H 0.2500 0.3757 0.4739
C9 C 0.2500 0.5000 0.4872(6)
C10 C 0.2500 0.5000 0.5650(7)
N1 N 0.3402(4) 0.08936(18) 0.04618(16)
N2 N 0.4062(5) 0.15617(19) 0.08154(18)
N3 N 0.2500 0.5696(8) 0.6052(4)
N4 N 0.2500 0.5428(7) 0.6768(4)
N5 N 0.2500 0.5000 0.2637(4)
O1 O 0.7500 0.0000 0.0911(3)
Cu1A Cu 1.0000 0.0000 0.0000
Cu1A_2 Cu 0.0000 1.0000 0.0000
Cu1_2 Cu 0.5000 1.0000 0.0000
Cu1A_3 Cu 0.0000 0.0000 0.0000
C1A C 0.2500 0.5769(4) 0.2248(4)
C2G C 0.0928(11) 0.3887(4) 0.2034(3)
C2A C 0.0928(11) 0.6113(4) 0.2034(3)
C2F C 0.4072(11) 0.6113(4) 0.2034(3)
H1F H 0.5209 0.5853 0.2146
H1A H -0.0209 0.5853 0.2146
H1G H -0.0209 0.4147 0.2146
C3G C 0.0915(10) 0.3113(4) 0.1627(4)
C3A C 0.0915(10) 0.6887(4) 0.1627(4)
C3F C 0.4085(10) 0.6887(4) 0.1627(4)
H2F H 0.5221 0.7138 0.1501
H2A H -0.0221 0.7138 0.1501
H2G H -0.0221 0.2862 0.1501
C4A C 0.2500 0.7232(4) 0.1436(4)
C5A C 0.2500 0.8029(3) 0.1028(3)
C7A C 0.2500 0.5742(6) 0.3760(4)
H3A H 0.2500 0.6260 0.3524
C8A C 0.2500 0.5732(7) 0.4493(4)
H4A H 0.2500 0.6243 0.4739
N1A N 0.1598(4) 0.91064(18) 0.04618(16)
N1F N 0.3402(4) 0.91064(18) 0.04618(16)
N1G N 0.1598(4) 0.08936(18) 0.04618(16)
N1B N 0.6598(4) 0.08936(18) -0.04618(16)
N1D N 0.6598(4) -0.08936(18) -0.04618(16)
N1F_2 N 0.3402(4) -0.08936(18) 0.04618(16)
N2A N 0.0938(5) 0.84383(19) 0.08154(18)
N2F N 0.4062(5) 0.84383(19) 0.08154(18)
N2G N 0.0938(5) 0.15617(19) 0.08154(18)
N3A N 0.2500 0.4304(8) 0.6052(4)
N4A N 0.2500 0.4572(7) 0.6768(4)
O1B O 0.2500 0.0000 -0.0911(3)
loop_
_geom_bond_atom_site_label_1
_geom_bond_atom_site_label_2
_geom_bond_site_symmetry_1
_geom_bond_site_symmetry_2
Cu1 N1 1_555 1_555
C1 C2 1_555 1_555
C2 H1 1_555 1_555
C3 C2 1_555 1_555
H2 C3 1_555 1_555
C4 C3 1_555 1_555
C5 C4 1_555 1_555
C6 C7 1_555 1_555
C7 H3 1_555 1_555
C8 C7 1_555 1_555
H4 C8 1_555 1_555
C9 C8 1_555 1_555
C10 C9 1_555 1_555
N1 N2 1_555 1_555
N2 C5 1_555 1_555
N3 C10 1_555 1_555
N4 N3 1_555 1_555
N5 C1 1_555 1_555
O1 Cu1 1_555 1_555
Cu1A O1 1_555 1_555
Cu1A_2 N1A 1_555 1_555
Cu1_2 N1F 1_555 1_555
Cu1A_3 N1G 1_555 1_555
C1A N5 1_555 1_555
C2G C1 1_555 1_555
C2A C1A 1_555 1_555
C2F C1A 1_555 1_555
H1F C2F 1_555 1_555
H1A C2A 1_555 1_555
H1G C2G 1_555 1_555
C3G C4 1_555 1_555
C3A C2A 1_555 1_555
C3F C2F 1_555 1_555
H2F C3F 1_555 1_555
H2A C3A 1_555 1_555
H2G C3G 1_555 1_555
C4A C3A 1_555 1_555
C5A C4A 1_555 1_555
C7A C6 1_555 1_555
H3A C7A 1_555 1_555
C8A C9 1_555 1_555
H4A C8A 1_555 1_555
N1A N1F 1_555 1_555
N1F N2F 1_555 1_555
N1G N1 1_555 1_555
N1B Cu1 1_555 1_555
N1D Cu1 1_555 1_555
N1F_2 Cu1 1_555 1_555
N2A C5A 1_555 1_555
N2F C5A 1_555 1_555
N2G C5 1_555 1_555
N3A C10 1_555 1_555
N4A N4 1_555 1_555
O1B Cu1 1_555 1_555
C6 N5 1_555 1_555
Cu1A_3 O1B 1_555 1_555
C2G C3G 1_555 1_555
C3F C4A 1_555 1_555
C7A C8A 1_555 1_555
N1A N2A 1_555 1_555
N1G N2G 1_555 1_555
N3A N4A 1_555 1_555

#END
