
#######################################################################
#
#                 Cambridge Crystallographic Data Centre
#                                CCDC 
#
#######################################################################
#
# If this CIF has been generated from an entry in the Cambridge 
# Structural Database, then it will include bibliographic, chemical, 
# crystal, experimental, refinement or atomic coordinate data resulting 
# from the CCDC's data processing and validation procedures.
#
#######################################################################

data_ZEFLAZ01
_symmetry_cell_setting           monoclinic
_symmetry_space_group_name_H-M   'C 2/c'
_symmetry_Int_Tables_number      15
_space_group_name_Hall           '-C 2yn'
loop_
_symmetry_equiv_pos_site_id
_symmetry_equiv_pos_as_xyz
1 x,y,z
2 -x,y,1/2-z
3 1/2+x,1/2+y,z
4 1/2-x,1/2+y,1/2-z
5 -x,-y,-z
6 x,-y,1/2+z
7 1/2-x,1/2-y,-z
8 1/2+x,1/2-y,1/2+z
_cell_length_a                   14.853(6)
_cell_length_b                   17.010(7)
_cell_length_c                   14.538(6)
_cell_angle_alpha                90
_cell_angle_beta                 120.72
_cell_angle_gamma                90
_cell_volume                     3157.6
loop_
_atom_site_label
_atom_site_type_symbol
_atom_site_fract_x
_atom_site_fract_y
_atom_site_fract_z
Br1 Br 0.42502(7) -0.10665(5) 0.31346(7)
Br2 Br 0.33001(9) 0.34782(6) 0.11135(7)
Co1 Co 0.09221(8) 0.12065(5) 0.20785(8)
N1 N 0.1763(5) 0.0445(3) 0.1638(5)
N2 N 0.2157(5) 0.2058(4) 0.2560(5)
O1 O 0.1703(4) -0.0777(3) -0.1352(4)
O2 O 0.0241(4) -0.0365(3) -0.1390(4)
O3 O 0.5107(4) 0.3266(3) 0.5512(4)
O4 O 0.4083(5) 0.2400(3) 0.5726(4)
O5 O 0.0000 0.1892(4) 0.2500
H1 H 0.0466 0.2235 0.3111
C1 C 0.3115(7) -0.0506(5) 0.2056(7)
C2 C 0.2629(7) 0.0054(5) 0.2359(7)
H2 H 0.2918 0.0163 0.3098
C3 C 0.1346(7) 0.0260(4) 0.0592(6)
H3 H 0.0716 0.0511 0.0080
C4 C 0.1799(6) -0.0281(4) 0.0236(6)
C5 C 0.2716(7) -0.0679(4) 0.0983(6)
H4 H 0.3047 -0.1049 0.0762
C6 C 0.1197(6) -0.0486(4) -0.0956(6)
C7 C 0.3144(7) 0.2946(5) 0.2170(7)
C8 C 0.2337(7) 0.2425(4) 0.1850(6)
H5 H 0.1894 0.2319 0.1109
C9 C 0.2806(6) 0.2187(4) 0.3596(6)
H6 H 0.2683 0.1928 0.4100
C10 C 0.3663(7) 0.2691(4) 0.3966(6)
C11 C 0.3843(7) 0.3082(4) 0.3236(7)
H7 H 0.4422 0.3427 0.3463
C12 C 0.4359(6) 0.2789(4) 0.5175(6)
H1A H -0.0466 0.2235 0.1889
Br1A Br -0.42502(7) -0.10665(5) 0.18654(7)
Br2A Br -0.33001(9) 0.34782(6) 0.38865(7)
Co1A Co -0.09221(8) 0.12065(5) 0.29215(8)
N1A N -0.1763(5) 0.0445(3) 0.3362(5)
N2A N -0.2157(5) 0.2058(4) 0.2440(5)
O1A O -0.1703(4) -0.0777(3) 0.6352(4)
O2A O -0.0241(4) -0.0365(3) 0.6390(4)
O3A O -0.5107(4) 0.3266(3) -0.0512(4)
O4A O -0.4083(5) 0.2400(3) -0.0726(4)
C1A C -0.3115(7) -0.0506(5) 0.2944(7)
C2A C -0.2629(7) 0.0054(5) 0.2641(7)
H2A H -0.2918 0.0163 0.1902
C3A C -0.1346(7) 0.0260(4) 0.4408(6)
H3A H -0.0716 0.0511 0.4920
C4A C -0.1799(6) -0.0281(4) 0.4764(6)
C5A C -0.2716(7) -0.0679(4) 0.4017(6)
H4A H -0.3047 -0.1049 0.4238
C6A C -0.1197(6) -0.0486(4) 0.5956(6)
C7A C -0.3144(7) 0.2946(5) 0.2830(7)
C8A C -0.2337(7) 0.2425(4) 0.3150(6)
H5A H -0.1894 0.2319 0.3891
C9A C -0.2806(6) 0.2187(4) 0.1404(6)
H6A H -0.2683 0.1928 0.0900
C10A C -0.3663(7) 0.2691(4) 0.1034(6)
C11A C -0.3843(7) 0.3082(4) 0.1764(7)
H7A H -0.4422 0.3427 0.1537
C12A C -0.4359(6) 0.2789(4) -0.0175(6)
Co1D Co -0.09221(8) -0.12065(5) -0.20785(8)
Co1D_2 Co -0.09221(8) -0.12065(5) 0.79215(8)
Co1E Co 0.09221(8) -0.12065(5) -0.29215(8)
Co1E_2 Co 0.09221(8) -0.12065(5) 0.70785(8)
Co1F Co -0.59221(8) 0.37935(5) -0.20785(8)
Co1G Co 0.59221(8) 0.37935(5) 0.70785(8)
O1D O -0.1703(4) 0.0777(3) 0.1352(4)
O1E O 0.1703(4) 0.0777(3) 0.3648(4)
O2D O -0.0241(4) 0.0365(3) 0.1390(4)
O2E O 0.0241(4) 0.0365(3) 0.3610(4)
O3F O -0.0107(4) 0.1734(3) 0.4488(4)
O3G O 0.0107(4) 0.1734(3) 0.0512(4)
O6 O 0.4822(18) 0.1065(10) 0.1919(18)
H8? H 0.0466 0.2235 0.3111
O7? O 0.385(5) 0.129(3) 0.176(5)
loop_
_geom_bond_atom_site_label_1
_geom_bond_atom_site_label_2
_geom_bond_site_symmetry_1
_geom_bond_site_symmetry_2
Br1 C1 1_555 1_555
Br2 C7 1_555 1_555
Co1 N1 1_555 1_555
N1 C2 1_555 1_555
N2 Co1 1_555 1_555
O1 C6 1_555 1_555
O2 C6 1_555 1_555
O3 C12 1_555 1_555
O4 C12 1_555 1_555
O5 Co1 1_555 1_555
H1 O5 1_555 1_555
C1 C2 1_555 1_555
C2 H2 1_555 1_555
C3 N1 1_555 1_555
H3 C3 1_555 1_555
C4 C3 1_555 1_555
C5 C1 1_555 1_555
H4 C5 1_555 1_555
C6 C4 1_555 1_555
C7 C8 1_555 1_555
C8 N2 1_555 1_555
H5 C8 1_555 1_555
C9 N2 1_555 1_555
H6 C9 1_555 1_555
C10 C9 1_555 1_555
C11 C7 1_555 1_555
H7 C11 1_555 1_555
C12 C10 1_555 1_555
H1A O5 1_555 1_555
Br1A C1A 1_555 1_555
Br2A C7A 1_555 1_555
Co1A O5 1_555 1_555
N1A Co1A 1_555 1_555
N2A Co1A 1_555 1_555
O1A C6A 1_555 1_555
O2A C6A 1_555 1_555
O3A C12A 1_555 1_555
O4A C12A 1_555 1_555
C1A C2A 1_555 1_555
C2A N1A 1_555 1_555
H2A C2A 1_555 1_555
C3A N1A 1_555 1_555
H3A C3A 1_555 1_555
C4A C3A 1_555 1_555
C5A C1A 1_555 1_555
H4A C5A 1_555 1_555
C6A C4A 1_555 1_555
C7A C8A 1_555 1_555
C8A N2A 1_555 1_555
H5A C8A 1_555 1_555
C9A N2A 1_555 1_555
H6A C9A 1_555 1_555
C10A C9A 1_555 1_555
C11A C7A 1_555 1_555
H7A C11A 1_555 1_555
C12A C10A 1_555 1_555
Co1D O2 1_555 1_555
Co1D_2 O1A 1_555 1_555
Co1E O1 1_555 1_555
Co1E_2 O2A 1_555 1_555
Co1F O3A 1_555 1_555
Co1G O3 1_555 1_555
O1D Co1A 1_555 1_555
O1E Co1 1_555 1_555
O2D Co1 1_555 1_555
O2E Co1A 1_555 1_555
O3F Co1A 1_555 1_555
O3G Co1 1_555 1_555
C4 C5 1_555 1_555
C10 C11 1_555 1_555
C4A C5A 1_555 1_555
C10A C11A 1_555 1_555

#END
