
#######################################################################
#
#                 Cambridge Crystallographic Data Centre
#                                CCDC 
#
#######################################################################
#
# If this CIF has been generated from an entry in the Cambridge 
# Structural Database, then it will include bibliographic, chemical, 
# crystal, experimental, refinement or atomic coordinate data resulting 
# from the CCDC's data processing and validation procedures.
#
#######################################################################

data_ZEFLON
_symmetry_cell_setting           monoclinic
_symmetry_space_group_name_H-M   'C 2/c'
_symmetry_Int_Tables_number      15
_space_group_name_Hall           '-C 2yn'
loop_
_symmetry_equiv_pos_site_id
_symmetry_equiv_pos_as_xyz
1 x,y,z
2 -x,y,1/2-z
3 1/2+x,1/2+y,z
4 1/2-x,1/2+y,1/2-z
5 -x,-y,-z
6 x,-y,1/2+z
7 1/2-x,1/2-y,-z
8 1/2+x,1/2-y,1/2+z
_cell_length_a                   31.956(11)
_cell_length_b                   13.755(4)
_cell_length_c                   16.234(6)
_cell_angle_alpha                90
_cell_angle_beta                 118.944(3)
_cell_angle_gamma                90
_cell_volume                     6244.43
loop_
_atom_site_label
_atom_site_type_symbol
_atom_site_fract_x
_atom_site_fract_y
_atom_site_fract_z
C1 C 0.17404(7) 0.64873(14) 0.30129(14)
C2 C 0.13199(7) 0.58133(15) 0.27495(16)
H1 H 0.1332 0.5547 0.3327
H2 H 0.1337 0.5263 0.2374
C3 C 0.08502(8) 0.63682(16) 0.21774(18)
H3 H 0.0806 0.6826 0.2600
H4 H 0.0874 0.6757 0.1689
C4 C 0.04143(7) 0.57169(15) 0.17054(16)
H5 H 0.0396 0.5312 0.2191
H6 H 0.0452 0.5275 0.1265
C5 C -0.00506(7) 0.62782(16) 0.11682(16)
H7 H -0.0083 0.6735 0.1605
H8 H -0.0035 0.6669 0.0671
C6 C -0.04898(7) 0.56334(15) 0.07174(15)
H9 H -0.0495 0.5223 0.1213
H10 H -0.0460 0.5194 0.0265
C7 C -0.09642(7) 0.61695(15) 0.02044(14)
C8 C 0.27183(7) 0.53683(15) 0.41181(15)
H11 H 0.2449 0.5082 0.3600
C9 C 0.30416(7) 0.48854(15) 0.49093(15)
H12 H 0.3036 0.4216 0.5048
C10 C 0.32424(7) 0.64204(15) 0.49996(14)
H13 H 0.3416 0.7009 0.5233
C11 C 0.37942(7) 0.53969(14) 0.63408(13)
C12 C 0.39995(7) 0.61712(15) 0.69567(14)
H14 H 0.3852 0.6793 0.6805
C13 C 0.44198(7) 0.60358(15) 0.77914(14)
H15 H 0.4562 0.6574 0.8200
C14 C 0.46405(7) 0.51207(14) 0.80489(14)
C15 C 0.44208(7) 0.43560(14) 0.74206(14)
H16 H 0.4561 0.3728 0.7578
C16 C 0.40036(7) 0.44847(14) 0.65721(14)
H17 H 0.3863 0.3952 0.6154
C17 C 0.50928(7) 0.49823(14) 0.89503(13)
C18 C 0.52160(7) 0.40530(15) 0.93554(14)
H18 H 0.5003 0.3526 0.9058
C19 C 0.56392(7) 0.38841(14) 1.01759(14)
H19 H 0.5716 0.3247 1.0432
C20 C 0.59519(7) 0.46508(14) 1.06243(13)
C21 C 0.58318(7) 0.55823(14) 1.02504(14)
H20 H 0.6039 0.6112 1.0564
C22 C 0.54090(7) 0.57387(14) 0.94187(14)
H21 H 0.5334 0.6377 0.9164
C23 C 0.66628(7) 0.51378(15) 1.21630(14)
H22 H 0.6601 0.5813 1.2164
C24 C 0.70368(7) 0.46356(15) 1.28429(14)
H23 H 0.7284 0.4907 1.3407
C25 C 0.66118(7) 0.35991(14) 1.17604(14)
H24 H 0.6500 0.3013 1.1412
C26 C 0.26377(8) 0.74389(16) 0.16862(16)
H25 H 0.2319 0.7241 0.1273
C27 C 0.29825(8) 0.75783(18) 0.14348(17)
H26 H 0.2951 0.7497 0.0826
C28 C 0.32701(7) 0.78732(15) 0.29422(14)
H27 H 0.3486 0.8038 0.3578
C29 C 0.38503(7) 0.80399(14) 0.23295(14)
C30 C 0.38928(7) 0.81419(14) 0.15244(14)
H28 H 0.3614 0.8150 0.0924
C31 C 0.43411(7) 0.82332(15) 0.15923(14)
H29 H 0.4365 0.8284 0.1033
C32 C 0.47580(7) 0.82517(13) 0.24652(14)
C33 C 0.47007(7) 0.82060(14) 0.32713(14)
H30 H 0.4975 0.8257 0.3875
C34 C 0.42544(7) 0.80890(14) 0.32121(14)
H31 H 0.4226 0.8043 0.3767
N1 N 0.28458(6) 0.63439(12) 0.41926(11)
N2 N 0.33741(6) 0.55563(12) 0.54587(12)
N3 N 0.63910(6) 0.44748(11) 1.14714(11)
N4 N 0.70012(6) 0.36679(12) 1.25861(11)
N5 N 0.28223(6) 0.76293(12) 0.26312(13)
N6 N 0.33865(6) 0.78608(13) 0.22422(12)
Ni1 Ni 0.244830(8) 0.752228(17) 0.336256(17)
O1 O 0.19293(5) 0.65281(10) 0.24797(9)
O2 O 0.18989(5) 0.70227(10) 0.37353(10)
O3 O -0.13396(5) 0.56353(10) -0.01544(11)
O4 O -0.09678(5) 0.70652(11) 0.01436(11)
O5 O 0.28457(5) 0.84915(10) 0.44247(9)
H32 H 0.2879 0.8346 0.4965
H33 H 0.3092 0.8791 0.4460
C1B C -0.32596(7) 1.14873(14) -0.69871(14)
C2B C -0.36801(7) 1.08133(15) -0.72505(16)
H1B H -0.3668 1.0547 -0.6673
H2B H -0.3663 1.0263 -0.7626
C3B C -0.41498(8) 1.13682(16) -0.78226(18)
H3B H -0.4194 1.1826 -0.7400
H4B H -0.4126 1.1757 -0.8311
C4B C -0.45857(7) 1.07169(15) -0.82946(16)
H5B H -0.4604 1.0312 -0.7809
H6B H -0.4548 1.0275 -0.8735
C5B C -0.50506(7) 1.12782(16) -0.88318(16)
H7B H -0.5083 1.1735 -0.8395
H8B H -0.5035 1.1669 -0.9329
C6B C -0.54898(7) 1.06334(15) -0.92826(15)
H9B H -0.5495 1.0223 -0.8787
H10B H -0.5460 1.0194 -0.9735
C7B C -0.59642(7) 1.11695(15) -0.97956(14)
C8B C -0.22817(7) 1.03683(15) -0.58819(15)
H11B H -0.2551 1.0082 -0.6400
C9B C -0.19584(7) 0.98854(15) -0.50907(15)
H12B H -0.1964 0.9216 -0.4952
C10B C -0.17576(7) 1.14204(15) -0.50004(14)
H13B H -0.1584 1.2009 -0.4767
C11B C -0.12058(7) 1.03969(14) -0.36592(13)
C12B C -0.10005(7) 1.11712(15) -0.30433(14)
H14B H -0.1148 1.1793 -0.3195
C13B C -0.05802(7) 1.10358(15) -0.22086(14)
H15B H -0.0438 1.1574 -0.1800
C14B C -0.03595(7) 1.01207(14) -0.19511(14)
C15B C -0.05792(7) 0.93560(14) -0.25794(14)
H16B H -0.0439 0.8728 -0.2422
C16B C -0.09964(7) 0.94847(14) -0.34279(14)
H17B H -0.1137 0.8952 -0.3846
C17B C 0.00928(7) 0.99823(14) -0.10497(13)
C18B C 0.02160(7) 0.90530(15) -0.06446(14)
H18B H 0.0003 0.8526 -0.0942
C19B C 0.06392(7) 0.88841(14) 0.01759(14)
H19B H 0.0716 0.8247 0.0432
C20B C 0.09519(7) 0.96508(14) 0.06243(13)
C21B C 0.08318(7) 1.05823(14) 0.02504(14)
H20B H 0.1039 1.1112 0.0564
C22B C 0.04090(7) 1.07387(14) -0.05813(14)
H21B H 0.0334 1.1377 -0.0836
C23B C 0.16628(7) 1.01378(15) 0.21630(14)
H22B H 0.1601 1.0813 0.2164
C24B C 0.20368(7) 0.96356(15) 0.28429(14)
H23B H 0.2284 0.9907 0.3407
C25B C 0.16118(7) 0.85991(14) 0.17604(14)
H24B H 0.1500 0.8013 0.1412
C26A C 0.73623(8) 0.74389(16) 0.33138(16)
H25A H 0.7681 0.7241 0.3727
C27A C 0.70175(8) 0.75783(18) 0.35652(17)
H26A H 0.7049 0.7497 0.4174
C28A C 0.67299(7) 0.78732(15) 0.20578(14)
H27A H 0.6514 0.8038 0.1422
C29A C 0.61497(7) 0.80399(14) 0.26705(14)
C30A C 0.61072(7) 0.81419(14) 0.34756(14)
H28A H 0.6386 0.8150 0.4076
C31A C 0.56589(7) 0.82332(15) 0.34077(14)
H29A H 0.5635 0.8284 0.3967
C32A C 0.52420(7) 0.82517(13) 0.25348(14)
C33A C 0.52993(7) 0.82060(14) 0.17287(14)
H30A H 0.5025 0.8257 0.1125
C34A C 0.57456(7) 0.80890(14) 0.17879(14)
H31A H 0.5774 0.8043 0.1233
N1B N -0.21542(6) 1.13439(12) -0.58074(11)
N2B N -0.16259(6) 1.05563(12) -0.45413(12)
N3B N 0.13910(6) 0.94748(11) 0.14714(11)
N4B N 0.20012(6) 0.86679(12) 0.25861(11)
N4_2 N -0.29988(6) 1.36679(12) -0.74139(11)
N5A N 0.71777(6) 0.76293(12) 0.23688(13)
N5B N -0.21777(6) 1.26293(12) -0.73688(13)
N6A N 0.66135(6) 0.78608(13) 0.27578(12)
Ni1B Ni -0.255170(8) 1.252228(17) -0.663744(17)
Ni1B_2 Ni 0.744830(8) 0.252228(17) 1.336256(17)
Ni1A Ni 0.755170(8) 0.752228(17) 0.163744(17)
O1B O -0.30707(5) 1.15281(10) -0.75203(9)
O2B O -0.31011(5) 1.20227(10) -0.62647(10)
O3B O -0.63396(5) 1.06353(10) -1.01544(11)
O4B O -0.59678(5) 1.20652(11) -0.98564(11)
O5B O -0.21543(5) 1.34915(10) -0.55753(9)
H32B H -0.2121 1.3346 -0.5035
H33B H -0.1908 1.3791 -0.5540
O6 O 0.14165(7) 0.63194(12) 0.05602(12)
H34 H 0.1593 0.6371 0.1157
H35 H 0.1356 0.5737 0.0351
O7 O 0.2909(4) 0.9220(8) -0.0008(8)
H36 H 0.2804 0.8927 0.0309
H37 H 0.3043 0.9733 0.0282
loop_
_geom_bond_atom_site_label_1
_geom_bond_atom_site_label_2
_geom_bond_site_symmetry_1
_geom_bond_site_symmetry_2
C1 C2 1_555 1_555
C2 H1 1_555 1_555
H2 C2 1_555 1_555
C3 C2 1_555 1_555
H3 C3 1_555 1_555
H4 C3 1_555 1_555
C4 C3 1_555 1_555
H5 C4 1_555 1_555
H6 C4 1_555 1_555
C5 C4 1_555 1_555
H7 C5 1_555 1_555
H8 C5 1_555 1_555
C6 C5 1_555 1_555
H9 C6 1_555 1_555
H10 C6 1_555 1_555
C7 C6 1_555 1_555
C8 H11 1_555 1_555
C9 C8 1_555 1_555
H12 C9 1_555 1_555
C10 H13 1_555 1_555
C11 C12 1_555 1_555
C12 H14 1_555 1_555
C13 C12 1_555 1_555
H15 C13 1_555 1_555
C14 C13 1_555 1_555
C15 C14 1_555 1_555
H16 C15 1_555 1_555
C16 C11 1_555 1_555
H17 C16 1_555 1_555
C17 C14 1_555 1_555
C18 C17 1_555 1_555
H18 C18 1_555 1_555
C19 C18 1_555 1_555
H19 C19 1_555 1_555
C20 C19 1_555 1_555
C21 C20 1_555 1_555
H20 C21 1_555 1_555
C22 C17 1_555 1_555
H21 C22 1_555 1_555
C23 H22 1_555 1_555
C24 C23 1_555 1_555
H23 C24 1_555 1_555
C25 H24 1_555 1_555
C26 H25 1_555 1_555
C27 C26 1_555 1_555
H26 C27 1_555 1_555
C28 H27 1_555 1_555
C29 C30 1_555 1_555
C30 H28 1_555 1_555
C31 C30 1_555 1_555
H29 C31 1_555 1_555
C32 C31 1_555 1_555
C33 C32 1_555 1_555
H30 C33 1_555 1_555
C34 C29 1_555 1_555
H31 C34 1_555 1_555
N1 C8 1_555 1_555
N2 C9 1_555 1_555
N3 C20 1_555 1_555
N4 C24 1_555 1_555
N5 C26 1_555 1_555
N6 C27 1_555 1_555
Ni1 N1 1_555 1_555
O1 C1 1_555 1_555
O2 C1 1_555 1_555
O3 C7 1_555 1_555
O4 C7 1_555 1_555
O5 Ni1 1_555 1_555
H32 O5 1_555 1_555
H33 O5 1_555 1_555
O6 H34 1_555 1_555
H35 O6 1_555 1_555
O7 H36 1_555 1_555
H37 O7 1_555 1_555
C1B C2B 1_555 1_555
C2B H1B 1_555 1_555
H2B C2B 1_555 1_555
C3B C2B 1_555 1_555
H3B C3B 1_555 1_555
H4B C3B 1_555 1_555
C4B C3B 1_555 1_555
H5B C4B 1_555 1_555
H6B C4B 1_555 1_555
C5B C4B 1_555 1_555
H7B C5B 1_555 1_555
H8B C5B 1_555 1_555
C6B C5B 1_555 1_555
H9B C6B 1_555 1_555
H10B C6B 1_555 1_555
C7B C6B 1_555 1_555
C8B H11B 1_555 1_555
C9B C8B 1_555 1_555
H12B C9B 1_555 1_555
C10B H13B 1_555 1_555
C11B C12B 1_555 1_555
C12B H14B 1_555 1_555
C13B C12B 1_555 1_555
H15B C13B 1_555 1_555
C14B C13B 1_555 1_555
C15B C14B 1_555 1_555
H16B C15B 1_555 1_555
C16B C11B 1_555 1_555
H17B C16B 1_555 1_555
C17B C14B 1_555 1_555
C18B C17B 1_555 1_555
H18B C18B 1_555 1_555
C19B C18B 1_555 1_555
H19B C19B 1_555 1_555
C20B C19B 1_555 1_555
C21B C20B 1_555 1_555
H20B C21B 1_555 1_555
C22B C17B 1_555 1_555
H21B C22B 1_555 1_555
C23B H22B 1_555 1_555
C24B C23B 1_555 1_555
H23B C24B 1_555 1_555
C25B H24B 1_555 1_555
C26A H25A 1_555 1_555
C27A C26A 1_555 1_555
H26A C27A 1_555 1_555
C28A H27A 1_555 1_555
C29A C30A 1_555 1_555
C30A H28A 1_555 1_555
C31A C30A 1_555 1_555
H29A C31A 1_555 1_555
C32A C32 1_555 1_555
C33A C32A 1_555 1_555
H30A C33A 1_555 1_555
C34A C29A 1_555 1_555
H31A C34A 1_555 1_555
N1B C8B 1_555 1_555
N2B C9B 1_555 1_555
N3B C20B 1_555 1_555
N4B Ni1 1_555 1_555
N4_2 Ni1B 1_555 1_555
N5A C26A 1_555 1_555
N5B Ni1B 1_555 1_555
N6A C27A 1_555 1_555
Ni1B N1B 1_555 1_555
Ni1B_2 N4 1_555 1_555
Ni1A N5A 1_555 1_555
O1B C1B 1_555 1_555
O2B C1B 1_555 1_555
O3B C7B 1_555 1_555
O4B C7B 1_555 1_555
O5B Ni1B 1_555 1_555
H32B O5B 1_555 1_555
H33B O5B 1_555 1_555
C10 N1 1_555 1_555
C10 N2 1_555 1_555
C11 N2 1_555 1_555
C15 C16 1_555 1_555
C21 C22 1_555 1_555
C23 N3 1_555 1_555
C25 N3 1_555 1_555
C25 N4 1_555 1_555
C28 N5 1_555 1_555
C28 N6 1_555 1_555
C29 N6 1_555 1_555
C33 C34 1_555 1_555
N5 Ni1 1_555 1_555
Ni1 O1 1_555 1_555
Ni1 O2 1_555 1_555
C10B N1B 1_555 1_555
C10B N2B 1_555 1_555
C11B N2B 1_555 1_555
C15B C16B 1_555 1_555
C21B C22B 1_555 1_555
C23B N3B 1_555 1_555
C24B N4B 1_555 1_555
C25B N3B 1_555 1_555
C25B N4B 1_555 1_555
C28A N5A 1_555 1_555
C28A N6A 1_555 1_555
C29A N6A 1_555 1_555
C31A C32A 1_555 1_555
C33A C34A 1_555 1_555
Ni1B O1B 1_555 1_555
Ni1B O2B 1_555 1_555

#END
