
#######################################################################
#
#                 Cambridge Crystallographic Data Centre
#                                CCDC 
#
#######################################################################
#
# If this CIF has been generated from an entry in the Cambridge 
# Structural Database, then it will include bibliographic, chemical, 
# crystal, experimental, refinement or atomic coordinate data resulting 
# from the CCDC's data processing and validation procedures.
#
#######################################################################

data_ZEFRAF
_symmetry_cell_setting           triclinic
_symmetry_space_group_name_H-M   'P -1'
_symmetry_Int_Tables_number      2
_space_group_name_Hall           '-P 1'
loop_
_symmetry_equiv_pos_site_id
_symmetry_equiv_pos_as_xyz
1 x,y,z
2 -x,-y,-z
_cell_length_a                   8.2037(16)
_cell_length_b                   11.926(2)
_cell_length_c                   14.227(3)
_cell_angle_alpha                88.07(3)
_cell_angle_beta                 82.43(3)
_cell_angle_gamma                87.89(3)
_cell_volume                     1378.28
loop_
_atom_site_label
_atom_site_type_symbol
_atom_site_fract_x
_atom_site_fract_y
_atom_site_fract_z
Hg1 Hg 0.13259(7) -0.17307(5) 0.72176(4)
Hg2 Hg 0.79715(7) 0.64118(5) 0.25412(4)
Br1 Br 0.3873(2) -0.18509(19) 0.80170(12)
Br2 Br -0.06517(19) -0.29628(12) 0.66004(11)
Br3 Br 1.0109(2) 0.75356(12) 0.31164(11)
Br4 Br 0.5396(2) 0.6530(3) 0.18087(15)
N1 N 0.7307(13) 0.5192(10) 0.3883(8)
N2 N 0.4422(14) 0.1979(10) 0.5247(8)
N3 N 0.2051(14) -0.0527(10) 0.5891(8)
N4 N -0.0421(15) -0.0493(11) 0.8222(8)
N5 N 0.0041(19) 0.1892(13) 0.9680(9)
N6 N -0.0249(16) 0.5106(10) 1.1582(8)
C1 C 0.6309(15) 0.4318(10) 0.3880(9)
H1 H 0.5836 0.4205 0.3333
C2 C 0.7993(16) 0.5320(12) 0.4697(9)
H2 H 0.8704 0.5904 0.4722
C3 C 0.7668(17) 0.4606(13) 0.5493(10)
H3 H 0.8137 0.4723 0.6040
C4 C 0.6648(16) 0.3733(12) 0.5453(9)
H4 H 0.6434 0.3248 0.5977
C5 C 0.5943(14) 0.3565(10) 0.4660(9)
C6 C 0.4852(17) 0.2671(10) 0.4541(10)
H5 H 0.4462 0.2591 0.3963
C7 C 0.3465(16) 0.1022(11) 0.5097(9)
C8 C 0.3139(17) 0.0685(12) 0.4220(9)
H6 H 0.3520 0.1081 0.3664
C9 C 0.2222(18) -0.0266(11) 0.4205(9)
H7 H 0.1946 -0.0508 0.3633
C10 C 0.1722(17) -0.0851(11) 0.5036(10)
H8 H 0.1131 -0.1497 0.5009
C11 C 0.2921(17) 0.0394(12) 0.5885(10)
H9 H 0.3178 0.0627 0.6464
C12 C 0.0196(19) 0.0327(11) 0.8649(9)
H10 H 0.1329 0.0410 0.8559
C13 C -0.205(2) -0.0598(14) 0.8299(10)
H11 H -0.2470 -0.1164 0.7976
C14 C -0.313(2) 0.012(2) 0.8849(12)
H12 H -0.4261 0.0033 0.8905
C15 C -0.246(2) 0.0976(16) 0.9316(12)
H13 H -0.3149 0.1475 0.9683
C16 C -0.079(2) 0.1073(12) 0.9230(9)
C17 C -0.0704(18) 0.2697(12) 1.0088(9)
H14 H -0.1831 0.2778 1.0069
C18 C 0.007(2) 0.3521(11) 1.0595(9)
C19 C 0.184(2) 0.3541(14) 1.0563(10)
H15 H 0.2535 0.3020 1.0228
C20 C 0.242(2) 0.4369(16) 1.1053(13)
H16 H 0.3544 0.4421 1.1053
C21 C 0.1360(19) 0.5131(14) 1.1549(11)
H17 H 0.1803 0.5685 1.1873
C22 C -0.0888(17) 0.4323(11) 1.1088(9)
H18 H -0.2021 0.4328 1.1082
Hg2_2 Hg -0.20285(7) 0.64118(5) 1.25412(4)
N6_2 N 0.9751(16) 0.5106(10) 0.1582(8)
loop_
_geom_bond_atom_site_label_1
_geom_bond_atom_site_label_2
_geom_bond_site_symmetry_1
_geom_bond_site_symmetry_2
Hg1 Br1 1_555 1_555
Hg2 Br3 1_555 1_555
Br2 Hg1 1_555 1_555
Br4 Hg2 1_555 1_555
N1 Hg2 1_555 1_555
N2 C6 1_555 1_555
N3 Hg1 1_555 1_555
N4 Hg1 1_555 1_555
N5 C16 1_555 1_555
N6 C21 1_555 1_555
C1 N1 1_555 1_555
H1 C1 1_555 1_555
C2 N1 1_555 1_555
H2 C2 1_555 1_555
C3 C2 1_555 1_555
H3 C3 1_555 1_555
C4 C3 1_555 1_555
H4 C4 1_555 1_555
C5 C1 1_555 1_555
C6 C5 1_555 1_555
H5 C6 1_555 1_555
C7 N2 1_555 1_555
C8 C7 1_555 1_555
H6 C8 1_555 1_555
C9 C8 1_555 1_555
H7 C9 1_555 1_555
C10 N3 1_555 1_555
H8 C10 1_555 1_555
C11 N3 1_555 1_555
H9 C11 1_555 1_555
C12 N4 1_555 1_555
H10 C12 1_555 1_555
C13 N4 1_555 1_555
H11 C13 1_555 1_555
C14 C13 1_555 1_555
H12 C14 1_555 1_555
C15 C14 1_555 1_555
H13 C15 1_555 1_555
C16 C12 1_555 1_555
C17 N5 1_555 1_555
H14 C17 1_555 1_555
C18 C17 1_555 1_555
C19 C18 1_555 1_555
H15 C19 1_555 1_555
C20 C19 1_555 1_555
H16 C20 1_555 1_555
C21 C20 1_555 1_555
H17 C21 1_555 1_555
C22 N6 1_555 1_555
H18 C22 1_555 1_555
Hg2_2 N6 1_555 1_555
N6_2 Hg2 1_555 1_555
C4 C5 1_555 1_555
C7 C11 1_555 1_555
C9 C10 1_555 1_555
C15 C16 1_555 1_555
C18 C22 1_555 1_555

#END
