
#######################################################################
#
#                 Cambridge Crystallographic Data Centre
#                                CCDC 
#
#######################################################################
#
# If this CIF has been generated from an entry in the Cambridge 
# Structural Database, then it will include bibliographic, chemical, 
# crystal, experimental, refinement or atomic coordinate data resulting 
# from the CCDC's data processing and validation procedures.
#
#######################################################################

data_ZEFSUA
_symmetry_cell_setting           orthorhombic
_symmetry_space_group_name_H-M   'P n a 21'
_symmetry_Int_Tables_number      33
_space_group_name_Hall           'P 2c -2n'
loop_
_symmetry_equiv_pos_site_id
_symmetry_equiv_pos_as_xyz
1 x,y,z
2 -x,-y,1/2+z
3 1/2+x,1/2-y,z
4 1/2-x,1/2+y,1/2+z
_cell_length_a                   29.3128(11)
_cell_length_b                   6.3013(2)
_cell_length_c                   7.0793(3)
_cell_angle_alpha                90
_cell_angle_beta                 90
_cell_angle_gamma                90
_cell_volume                     1307.61
loop_
_atom_site_label
_atom_site_type_symbol
_atom_site_fract_x
_atom_site_fract_y
_atom_site_fract_z
Sr1 Sr 0.473500(9) 0.61000(4) 0.04688(9)
O1 O 0.54880(12) 0.4641(5) 0.2066(4)
O2 O 0.54537(13) 0.4097(5) -0.1021(5)
O3 O 0.74245(7) 0.0373(3) 0.0454(6)
O4 O 0.95144(8) 0.2698(3) 0.0883(4)
O5 O 0.92480(9) 0.5744(4) -0.0230(4)
C1 C 0.56622(10) 0.4002(4) 0.0540(10)
C2 C 0.61389(10) 0.3113(4) 0.0526(9)
C3 C 0.64915(12) 0.4137(6) 0.1455(6)
H1 H 0.6434 0.5385 0.2114
C4 C 0.69316(12) 0.3314(6) 0.1410(6)
H2 H 0.7169 0.4009 0.2023
C5 C 0.70099(10) 0.1444(4) 0.0440(10)
C6 C 0.66610(13) 0.0387(6) -0.0464(6)
H3 H 0.6717 -0.0889 -0.1081
C7 C 0.62230(12) 0.1249(6) -0.0446(6)
H4 H 0.5987 0.0570 -0.1086
C8 C 0.91934(10) 0.3890(5) 0.0369(10)
C9 C 0.87182(10) 0.3029(4) 0.0448(9)
C10 C 0.83611(13) 0.4143(6) -0.0376(6)
H5 H 0.8417 0.5447 -0.0946
C11 C 0.79200(13) 0.3322(6) -0.0358(6)
H6 H 0.7683 0.4065 -0.0925
C12 C 0.78390(10) 0.1425(4) 0.0499(11)
C13 C 0.81909(12) 0.0298(6) 0.1370(6)
H7 H 0.8132 -0.0988 0.1966
C14 C 0.86257(12) 0.1112(5) 0.1335(6)
H8 H 0.8861 0.0368 0.1913
O6 O 0.52082(9) 0.9371(4) 0.1234(5)
H9 H 0.5300 0.9432 0.2372
H10 H 0.5038 1.0397 0.0904
Sr1A Sr 0.526500(9) 0.39000(4) 0.54688(9)
Sr1A_2 Sr 0.526500(9) 0.39000(4) -0.45312(9)
Sr1B Sr 0.973500(9) -0.11000(4) 0.04688(9)
Sr1B_2 Sr 0.973500(9) 0.89000(4) 0.04688(9)
O1A O 0.45120(12) 0.5359(5) -0.2934(4)
O2A O 0.45463(13) 0.5903(5) 0.3979(5)
O4B O 0.45144(8) 0.2302(3) 0.0883(4)
O5B O 0.42480(9) 0.9256(4) -0.0230(4)
loop_
_geom_bond_atom_site_label_1
_geom_bond_atom_site_label_2
_geom_bond_site_symmetry_1
_geom_bond_site_symmetry_2
Sr1 O1 1_555 1_555
O1 C1 1_555 1_555
O2 Sr1 1_555 1_555
O3 C5 1_555 1_555
O4 C8 1_555 1_555
O5 C8 1_555 1_555
C1 O2 1_555 1_555
C2 C1 1_555 1_555
C3 C2 1_555 1_555
H1 C3 1_555 1_555
C4 C3 1_555 1_555
H2 C4 1_555 1_555
C5 C4 1_555 1_555
C6 C5 1_555 1_555
H3 C6 1_555 1_555
C7 C2 1_555 1_555
H4 C7 1_555 1_555
C8 C9 1_555 1_555
C9 C10 1_555 1_555
C10 H5 1_555 1_555
C11 C10 1_555 1_555
H6 C11 1_555 1_555
C12 O3 1_555 1_555
C13 C12 1_555 1_555
H7 C13 1_555 1_555
C14 C9 1_555 1_555
H8 C14 1_555 1_555
O6 Sr1 1_555 1_555
H9 O6 1_555 1_555
H10 O6 1_555 1_555
Sr1A O1 1_555 1_555
Sr1A_2 O2 1_555 1_555
Sr1B O4 1_555 1_555
Sr1B_2 O5 1_555 1_555
O1A Sr1 1_555 1_555
O2A Sr1 1_555 1_555
O4B Sr1 1_555 1_555
O5B Sr1 1_555 1_555
C6 C7 1_555 1_555
C11 C12 1_555 1_555
C13 C14 1_555 1_555
Sr1A O2A 1_555 1_555
Sr1A_2 O1A 1_555 1_555

#END
