
#######################################################################
#
#                 Cambridge Crystallographic Data Centre
#                                CCDC 
#
#######################################################################
#
# If this CIF has been generated from an entry in the Cambridge 
# Structural Database, then it will include bibliographic, chemical, 
# crystal, experimental, refinement or atomic coordinate data resulting 
# from the CCDC's data processing and validation procedures.
#
#######################################################################

data_ZEFWOY
_symmetry_cell_setting           triclinic
_symmetry_space_group_name_H-M   'P -1'
_symmetry_Int_Tables_number      2
_space_group_name_Hall           '-P 1'
loop_
_symmetry_equiv_pos_site_id
_symmetry_equiv_pos_as_xyz
1 x,y,z
2 -x,-y,-z
_cell_length_a                   8.9771(6)
_cell_length_b                   11.0283(7)
_cell_length_c                   12.0901(6)
_cell_angle_alpha                74.718(5)
_cell_angle_beta                 85.000(5)
_cell_angle_gamma                81.608(6)
_cell_volume                     1140.77
loop_
_atom_site_label
_atom_site_type_symbol
_atom_site_fract_x
_atom_site_fract_y
_atom_site_fract_z
Zn1 Zn 0.27480(4) 0.42344(3) 0.12097(3)
C1 C 0.0527(4) 0.3976(3) 0.3401(2)
H1 H 0.1186 0.4252 0.3806
C2 C -0.0393(4) 0.3523(3) 0.2045(2)
H2 H -0.0561 0.3398 0.1337
C3 C -0.2743(3) 0.2780(3) 0.3072(3)
H3 H -0.2974 0.2696 0.2329
H4 H -0.3540 0.3366 0.3312
C4 C -0.3245(4) 0.0239(3) 0.5427(2)
C5 C -0.3906(3) -0.0357(3) 0.6571(2)
C6 C -0.4965(4) 0.0254(3) 0.7188(3)
H5 H -0.5359 0.1093 0.6884
C7 C -0.5443(4) -0.0400(3) 0.8276(3)
H6 H -0.6164 -0.0006 0.8712
C8 C -0.4833(4) -0.1644(3) 0.8700(3)
H7 H -0.5162 -0.2076 0.9428
C9 C -0.3360(4) -0.1609(3) 0.7065(2)
H8 H -0.2648 -0.2024 0.6640
C10 C -0.1840(4) 0.0422(3) 0.3924(2)
C11 C -0.0694(4) 0.0127(3) 0.3058(3)
C12 C 0.0368(4) -0.0931(3) 0.3356(3)
H9 H 0.0374 -0.1441 0.4103
C13 C 0.1408(4) -0.1216(3) 0.2537(3)
H10 H 0.2123 -0.1929 0.2713
C14 C 0.1373(5) -0.0426(4) 0.1448(3)
H11 H 0.2072 -0.0590 0.0874
C15 C 0.0287(5) 0.0612(3) 0.1222(3)
H12 H 0.0277 0.1141 0.0482
C16 C 0.2563(4) 0.3702(3) -0.0814(2)
C17 C 0.5625(3) 0.4040(3) -0.1967(2)
C18 C 0.4330(3) 0.3849(2) -0.2582(2)
C19 C 0.2924(3) 0.3599(2) -0.2032(2)
C20 C 0.1857(4) 0.3277(3) -0.2624(3)
H13 H 0.0936 0.3085 -0.2255
C21 C 0.2138(4) 0.3237(3) -0.3757(3)
H14 H 0.1409 0.3018 -0.4144
C22 C 0.3493(4) 0.3522(3) -0.4313(3)
H15 H 0.3675 0.3516 -0.5081
C23 C 0.4580(4) 0.3818(3) -0.3727(2)
H16 H 0.5500 0.3999 -0.4103
N1 N 0.0796(3) 0.3958(2) 0.22734(19)
N2 N -0.0749(3) 0.3568(2) 0.3860(2)
N3 N -0.1322(3) 0.3284(2) 0.29695(19)
N4 N -0.2690(3) 0.1546(2) 0.3904(2)
N5 N -0.3605(3) 0.1440(2) 0.4879(2)
N6 N -0.2165(3) -0.0423(2) 0.4887(2)
N7 N -0.3792(3) -0.2255(2) 0.8114(2)
N8 N -0.0755(3) 0.0908(2) 0.1999(2)
O1 O 0.3505(3) 0.41392(19) -0.03641(16)
O2 O 0.1353(3) 0.3384(2) -0.03135(17)
O3 O 0.5923(2) 0.51696(17) -0.21468(16)
O4 O 0.6351(3) 0.30686(18) -0.13879(18)
O5 O 0.1673(2) 0.61286(18) 0.04021(16)
H17 H 0.0728 0.6300 0.0564
H18 H 0.2231 0.6508 0.0707
Zn1A Zn -0.27480(4) -0.42344(3) 0.87903(3)
Zn1A_2 Zn 0.72520(4) 0.57656(3) -0.12097(3)
N7A N 0.3792(3) 0.2255(2) 0.1886(2)
O3A O 0.4077(2) 0.48304(17) 0.21468(16)
loop_
_geom_bond_atom_site_label_1
_geom_bond_atom_site_label_2
_geom_bond_site_symmetry_1
_geom_bond_site_symmetry_2
Zn1 N1 1_555 1_555
C1 H1 1_555 1_555
C2 H2 1_555 1_555
C3 H3 1_555 1_555
H4 C3 1_555 1_555
C4 C5 1_555 1_555
C5 C6 1_555 1_555
C6 H5 1_555 1_555
C7 C6 1_555 1_555
H6 C7 1_555 1_555
C8 C7 1_555 1_555
H7 C8 1_555 1_555
C9 C5 1_555 1_555
H8 C9 1_555 1_555
C10 C11 1_555 1_555
C11 C12 1_555 1_555
C12 H9 1_555 1_555
C13 C12 1_555 1_555
H10 C13 1_555 1_555
C14 C13 1_555 1_555
H11 C14 1_555 1_555
C15 C14 1_555 1_555
H12 C15 1_555 1_555
C16 C19 1_555 1_555
C17 C18 1_555 1_555
C18 C19 1_555 1_555
C19 C20 1_555 1_555
C20 H13 1_555 1_555
C21 C20 1_555 1_555
H14 C21 1_555 1_555
C22 C21 1_555 1_555
H15 C22 1_555 1_555
C23 C18 1_555 1_555
H16 C23 1_555 1_555
N1 C1 1_555 1_555
N2 C1 1_555 1_555
N3 C2 1_555 1_555
N4 C3 1_555 1_555
N5 C4 1_555 1_555
N6 C4 1_555 1_555
N7 C8 1_555 1_555
N8 C11 1_555 1_555
O1 Zn1 1_555 1_555
O2 C16 1_555 1_555
O3 C17 1_555 1_555
O4 C17 1_555 1_555
O5 Zn1 1_555 1_555
H17 O5 1_555 1_555
H18 O5 1_555 1_555
Zn1A N7 1_555 1_555
Zn1A_2 O3 1_555 1_555
N7A Zn1 1_555 1_555
O3A Zn1 1_555 1_555
C2 N1 1_555 1_555
C3 N3 1_555 1_555
C9 N7 1_555 1_555
C10 N4 1_555 1_555
C10 N6 1_555 1_555
C15 N8 1_555 1_555
C16 O1 1_555 1_555
C22 C23 1_555 1_555
N2 N3 1_555 1_555
N4 N5 1_555 1_555

#END
