
#######################################################################
#
#                 Cambridge Crystallographic Data Centre
#                                CCDC 
#
#######################################################################
#
# If this CIF has been generated from an entry in the Cambridge 
# Structural Database, then it will include bibliographic, chemical, 
# crystal, experimental, refinement or atomic coordinate data resulting 
# from the CCDC's data processing and validation procedures.
#
#######################################################################

data_ZEFXAL
_symmetry_cell_setting           triclinic
_symmetry_space_group_name_H-M   'P -1'
_symmetry_Int_Tables_number      2
_space_group_name_Hall           '-P 1'
loop_
_symmetry_equiv_pos_site_id
_symmetry_equiv_pos_as_xyz
1 x,y,z
2 -x,-y,-z
_cell_length_a                   10.8170(5)
_cell_length_b                   11.0298(7)
_cell_length_c                   11.3773(6)
_cell_angle_alpha                114.656(6)
_cell_angle_beta                 104.715(4)
_cell_angle_gamma                95.911(5)
_cell_volume                     1159
loop_
_atom_site_label
_atom_site_type_symbol
_atom_site_fract_x
_atom_site_fract_y
_atom_site_fract_z
Zn1 Zn 0.69586(4) 0.13303(4) 0.15641(4)
C1 C 0.7220(5) -0.0627(5) -0.1228(4)
H1 H 0.7221 0.0033 -0.1537
C2 C 0.7185(3) -0.1543(4) 0.0046(3)
H2 H 0.7154 -0.1718 0.0771
C3 C 0.7233(4) -0.3887(4) -0.1555(4)
H3 H 0.6460 -0.4446 -0.2350
H4 H 0.7171 -0.4103 -0.0825
C4 C 0.9409(3) -0.5298(3) -0.3188(3)
C5 C 0.9645(3) -0.6209(3) -0.4447(3)
C6 C 0.8615(4) -0.6823(4) -0.5663(3)
H5 H 0.7801 -0.6627 -0.5654
C7 C 0.9896(4) -0.7949(4) -0.6856(4)
H6 H 0.9985 -0.8555 -0.7677
C8 C 1.0972(4) -0.7373(5) -0.5710(4)
H7 H 1.1780 -0.7566 -0.5755
C9 C 1.0852(4) -0.6491(4) -0.4468(4)
H8 H 1.1572 -0.6099 -0.3667
C10 C 0.9666(3) -0.4013(4) -0.1129(3)
C11 C 1.0234(4) -0.3161(4) 0.0375(3)
C12 C 1.1549(4) -0.3010(4) 0.1042(4)
H9 H 1.2090 -0.3432 0.0562
C13 C 1.2025(4) -0.2207(5) 0.2448(4)
H10 H 1.2901 -0.2080 0.2933
C14 C 1.1199(5) -0.1599(4) 0.3122(4)
H11 H 1.1510 -0.1049 0.4066
C15 C 0.9914(5) -0.1814(5) 0.2390(4)
H12 H 0.9359 -0.1404 0.2857
C16 C 0.6141(4) 0.3401(4) 0.1262(4)
C17 C 0.5572(3) 0.4232(4) 0.0604(4)
C18 C 0.5009(4) 0.3653(4) -0.0804(4)
H13 H 0.5014 0.2750 -0.1351
C19 C 0.5563(4) 0.5585(4) 0.1402(4)
H14 H 0.5945 0.5984 0.2348
C20 C 0.6292(4) 0.0175(4) 0.3108(3)
C21 C 0.5601(3) 0.0086(4) 0.4082(3)
C22 C 0.4823(4) 0.0973(4) 0.4544(3)
H15 H 0.4705 0.1631 0.4242
C23 C 0.5785(4) -0.0890(4) 0.4545(3)
H16 H 0.6314 -0.1485 0.4244
N1 N 0.7177(3) -0.0350(3) 0.0045(3)
N2 N 0.7261(4) -0.1871(4) -0.1972(3)
N3 N 0.7245(3) -0.2450(3) -0.1130(3)
N4 N 0.8402(3) -0.4232(3) -0.1890(3)
N5 N 0.8224(3) -0.5066(3) -0.3225(3)
N6 N 1.0331(3) -0.4663(3) -0.1918(3)
N7 N 0.8722(3) -0.7688(3) -0.6861(3)
N8 N 0.9414(3) -0.2589(4) 0.1027(3)
O1 O 0.6269(3) 0.2238(3) 0.0473(3)
O2 O 0.6441(3) 0.3855(3) 0.2513(3)
O3 O 0.5862(3) 0.0876(3) 0.2503(3)
O4 O 0.7206(3) -0.0387(3) 0.2969(3)
Zn1_2 Zn 0.69586(4) 1.13303(4) 1.15641(4)
Zn1_3 Zn 0.69586(4) -0.86697(4) -0.84359(4)
Zn1A Zn 0.30414(4) 0.86697(4) -0.15641(4)
Zn1A_2 Zn 0.30414(4) -0.13303(4) 0.84359(4)
C1_2 C 0.7220(5) 0.9373(5) 0.8772(4)
H1_2 H 0.7221 1.0033 0.8463
C2_2 C 0.7185(3) 0.8457(4) 1.0046(3)
H2_2 H 0.7154 0.8282 1.0771
C3_2 C 0.7233(4) 0.6113(4) 0.8445(4)
H3_2 H 0.6460 0.5554 0.7650
H4_2 H 0.7171 0.5897 0.9175
C4_2 C 0.9409(3) 0.4702(3) 0.6812(3)
C5_2 C 0.9645(3) 0.3791(3) 0.5553(3)
C6_2 C 0.8615(4) 0.3177(4) 0.4337(3)
H5_2 H 0.7801 0.3373 0.4346
C7_2 C 0.9896(4) 0.2051(4) 0.3144(4)
H6_2 H 0.9985 0.1445 0.2323
C8_2 C 1.0972(4) 0.2627(5) 0.4290(4)
H7_2 H 1.1780 0.2434 0.4245
C9_2 C 1.0852(4) 0.3509(4) 0.5532(4)
H8_2 H 1.1572 0.3901 0.6333
C10_2 C 0.9666(3) 0.5987(4) 0.8871(3)
C11_2 C 1.0234(4) 0.6839(4) 1.0375(3)
C12_2 C 1.1549(4) 0.6990(4) 1.1042(4)
H9_2 H 1.2090 0.6568 1.0562
C13_2 C 1.2025(4) 0.7793(5) 1.2448(4)
H10_2 H 1.2901 0.7920 1.2933
C14_2 C 1.1199(5) 0.8401(4) 1.3122(4)
H11_2 H 1.1510 0.8951 1.4066
C15_2 C 0.9914(5) 0.8186(5) 1.2390(4)
H12_2 H 0.9359 0.8596 1.2857
C16A C 0.3859(4) 0.6599(4) -0.1262(4)
C17A C 0.4428(3) 0.5768(4) -0.0604(4)
C18A C 0.4991(4) 0.6347(4) 0.0804(4)
H13A H 0.4986 0.7250 0.1351
C19A C 0.4437(4) 0.4415(4) -0.1402(4)
H14A H 0.4055 0.4016 -0.2348
C20A C 0.3708(4) -0.0175(4) 0.6892(3)
C21A C 0.4399(3) -0.0086(4) 0.5918(3)
C22A C 0.5177(4) -0.0973(4) 0.5456(3)
H15A H 0.5295 -0.1631 0.5758
C23A C 0.4215(4) 0.0890(4) 0.5455(3)
H16A H 0.3686 0.1485 0.5756
N1_2 N 0.7177(3) 0.9650(3) 1.0045(3)
N2_2 N 0.7261(4) 0.8129(4) 0.8028(3)
N3_2 N 0.7245(3) 0.7550(3) 0.8870(3)
N4_2 N 0.8402(3) 0.5768(3) 0.8110(3)
N5_2 N 0.8224(3) 0.4934(3) 0.6775(3)
N6_2 N 1.0331(3) 0.5337(3) 0.8082(3)
N7_2 N 0.8722(3) 0.2312(3) 0.3139(3)
N7_3 N 0.8722(3) 1.2312(3) 1.3139(3)
N8_2 N 0.9414(3) 0.7411(4) 1.1027(3)
O1A O 0.3731(3) 0.7762(3) -0.0473(3)
O1_2 O 0.6269(3) 1.2238(3) 1.0473(3)
O2A O 0.3559(3) 0.6145(3) -0.2513(3)
O3A O 0.4138(3) -0.0876(3) 0.7497(3)
O3_2 O 0.5862(3) 1.0876(3) 1.2503(3)
O4A O 0.2794(3) 0.0387(3) 0.7031(3)
O5 O 0.5723(5) 0.5743(5) 0.4529(5)
H17 H 0.6099 0.5194 0.4045
H18 H 0.5987 0.6530 0.4597
loop_
_geom_bond_atom_site_label_1
_geom_bond_atom_site_label_2
_geom_bond_site_symmetry_1
_geom_bond_site_symmetry_2
Zn1 N1 1_555 1_555
C1 H1 1_555 1_555
C2 H2 1_555 1_555
C3 H3 1_555 1_555
H4 C3 1_555 1_555
C4 C5 1_555 1_555
C5 C6 1_555 1_555
C6 H5 1_555 1_555
C7 H6 1_555 1_555
C8 C7 1_555 1_555
H7 C8 1_555 1_555
C9 C5 1_555 1_555
H8 C9 1_555 1_555
C10 C11 1_555 1_555
C11 C12 1_555 1_555
C12 H9 1_555 1_555
C13 C12 1_555 1_555
H10 C13 1_555 1_555
C14 C13 1_555 1_555
H11 C14 1_555 1_555
C15 C14 1_555 1_555
H12 C15 1_555 1_555
C16 C17 1_555 1_555
C17 C18 1_555 1_555
C18 H13 1_555 1_555
C19 C17 1_555 1_555
H14 C19 1_555 1_555
C20 C21 1_555 1_555
C21 C22 1_555 1_555
C22 H15 1_555 1_555
C23 C21 1_555 1_555
H16 C23 1_555 1_555
N1 C1 1_555 1_555
N2 C1 1_555 1_555
N3 C2 1_555 1_555
N4 C3 1_555 1_555
N5 C4 1_555 1_555
N6 C4 1_555 1_555
N7 C6 1_555 1_555
N8 C11 1_555 1_555
O1 Zn1 1_555 1_555
O2 C16 1_555 1_555
O3 Zn1 1_555 1_555
O4 C20 1_555 1_555
O5 H17 1_555 1_555
H18 O5 1_555 1_555
Zn1_2 N1_2 1_555 1_555
Zn1_3 N7 1_555 1_555
Zn1A O1A 1_555 1_555
Zn1A_2 O3A 1_555 1_555
C1_2 H1_2 1_555 1_555
C2_2 H2_2 1_555 1_555
C3_2 H3_2 1_555 1_555
H4_2 C3_2 1_555 1_555
C4_2 C5_2 1_555 1_555
C5_2 C6_2 1_555 1_555
C6_2 H5_2 1_555 1_555
C7_2 H6_2 1_555 1_555
C8_2 C7_2 1_555 1_555
H7_2 C8_2 1_555 1_555
C9_2 C5_2 1_555 1_555
H8_2 C9_2 1_555 1_555
C10_2 C11_2 1_555 1_555
C11_2 C12_2 1_555 1_555
C12_2 H9_2 1_555 1_555
C13_2 C12_2 1_555 1_555
H10_2 C13_2 1_555 1_555
C14_2 C13_2 1_555 1_555
H11_2 C14_2 1_555 1_555
C15_2 C14_2 1_555 1_555
H12_2 C15_2 1_555 1_555
C16A C17A 1_555 1_555
C17A C18A 1_555 1_555
C18A C19 1_555 1_555
H13A C18A 1_555 1_555
C19A C18 1_555 1_555
H14A C19A 1_555 1_555
C20A C21A 1_555 1_555
C21A C22A 1_555 1_555
C22A C23 1_555 1_555
H15A C22A 1_555 1_555
C23A C22 1_555 1_555
H16A C23A 1_555 1_555
N1_2 C1_2 1_555 1_555
N2_2 C1_2 1_555 1_555
N3_2 C2_2 1_555 1_555
N4_2 C3_2 1_555 1_555
N5_2 C4_2 1_555 1_555
N6_2 C4_2 1_555 1_555
N7_2 Zn1 1_555 1_555
N7_3 Zn1_2 1_555 1_555
N8_2 C11_2 1_555 1_555
O1A C16A 1_555 1_555
O1_2 Zn1_2 1_555 1_555
O2A C16A 1_555 1_555
O3A C20A 1_555 1_555
O3_2 Zn1_2 1_555 1_555
O4A C20A 1_555 1_555
C2 N1 1_555 1_555
C3 N3 1_555 1_555
C7 N7 1_555 1_555
C8 C9 1_555 1_555
C10 N4 1_555 1_555
C10 N6 1_555 1_555
C15 N8 1_555 1_555
C16 O1 1_555 1_555
C20 O3 1_555 1_555
N2 N3 1_555 1_555
N4 N5 1_555 1_555
C2_2 N1_2 1_555 1_555
C3_2 N3_2 1_555 1_555
C6_2 N7_2 1_555 1_555
C7_2 N7_2 1_555 1_555
C8_2 C9_2 1_555 1_555
C10_2 N4_2 1_555 1_555
C10_2 N6_2 1_555 1_555
C15_2 N8_2 1_555 1_555
C17A C19A 1_555 1_555
C21A C23A 1_555 1_555
N2_2 N3_2 1_555 1_555
N4_2 N5_2 1_555 1_555

#END
