
#######################################################################
#
#                 Cambridge Crystallographic Data Centre
#                                CCDC 
#
#######################################################################
#
# If this CIF has been generated from an entry in the Cambridge 
# Structural Database, then it will include bibliographic, chemical, 
# crystal, experimental, refinement or atomic coordinate data resulting 
# from the CCDC's data processing and validation procedures.
#
#######################################################################

data_ZEFYAM
_symmetry_cell_setting           monoclinic
_symmetry_space_group_name_H-M   'C 2/c'
_symmetry_Int_Tables_number      15
_space_group_name_Hall           '-C 2yn'
loop_
_symmetry_equiv_pos_site_id
_symmetry_equiv_pos_as_xyz
1 x,y,z
2 -x,y,1/2-z
3 1/2+x,1/2+y,z
4 1/2-x,1/2+y,1/2-z
5 -x,-y,-z
6 x,-y,1/2+z
7 1/2-x,1/2-y,-z
8 1/2+x,1/2-y,1/2+z
_cell_length_a                   25.5723(13)
_cell_length_b                   10.2646(3)
_cell_length_c                   20.2916(9)
_cell_angle_alpha                90
_cell_angle_beta                 112.618(6)
_cell_angle_gamma                90
_cell_volume                     4916.68
loop_
_atom_site_label
_atom_site_type_symbol
_atom_site_fract_x
_atom_site_fract_y
_atom_site_fract_z
Zn1 Zn 0.59280(2) 0.11926(4) 0.16217(3)
Zn2 Zn 0.08624(3) -0.16755(4) 0.03547(3)
C1 C 0.4763(2) -0.0160(4) 0.0848(3)
H1 H 0.4945 -0.0871 0.0748
C2 C 0.4641(2) 0.1654(4) 0.1232(2)
H2 H 0.4694 0.2468 0.1449
C3 C 0.35928(19) 0.1541(4) 0.0846(2)
H3 H 0.3476 0.1023 0.1165
H4 H 0.3619 0.2442 0.0999
C4 C 0.27123(19) 0.2073(4) -0.0910(2)
C5 C 0.25345(18) 0.2862(4) -0.1570(2)
C6 C 0.29143(19) 0.3756(4) -0.1662(2)
H5 H 0.3285 0.3818 -0.1330
C7 C 0.2723(2) 0.4539(4) -0.2255(3)
H6 H 0.2965 0.5140 -0.2334
C8 C 0.2176(2) 0.4432(4) -0.2729(2)
H7 H 0.2054 0.4976 -0.3126
C9 C 0.19968(19) 0.2803(4) -0.2076(2)
H8 H 0.1750 0.2188 -0.2019
C10 C 0.26950(19) 0.0715(4) -0.0142(2)
C11 C 0.25318(19) -0.0326(4) 0.0250(2)
C12 C 0.2920(2) -0.1198(4) 0.0694(3)
H9 H 0.3300 -0.1159 0.0757
C13 C 0.2731(2) -0.2124(5) 0.1040(3)
H10 H 0.2980 -0.2727 0.1342
C14 C 0.2167(2) -0.2140(5) 0.0931(3)
H11 H 0.2045 -0.2766 0.1171
C15 C 0.19714(19) -0.0422(4) 0.0168(2)
H12 H 0.1714 0.0165 -0.0136
C16 C 0.59299(18) -0.0994(4) 0.2293(2)
C17 C 0.58185(17) -0.5756(4) 0.1678(2)
C18 C 0.56425(18) -0.4307(4) 0.3942(2)
C19 C 0.57041(17) -0.3987(3) 0.3250(2)
C20 C 0.57581(17) -0.2695(3) 0.3076(2)
H13 H 0.5738 -0.2031 0.3377
C21 C 0.58422(17) -0.2390(3) 0.2459(2)
C22 C 0.58507(18) -0.3379(3) 0.2002(2)
H14 H 0.5896 -0.3175 0.1580
C23 C 0.57928(17) -0.4679(3) 0.2162(2)
C24 C 0.57234(18) -0.4958(3) 0.2793(2)
H15 H 0.5689 -0.5822 0.2908
N1 N 0.50484(15) 0.0892(3) 0.12220(19)
N2 N 0.42130(17) -0.0093(3) 0.0642(2)
N3 N 0.41429(15) 0.1102(3) 0.08892(18)
N4 N 0.31742(15) 0.1431(3) 0.01292(18)
N5 N 0.31855(15) 0.2312(3) -0.03674(19)
N6 N 0.23893(15) 0.1098(3) -0.08018(19)
N7 N 0.18032(15) 0.3582(3) -0.26522(18)
N8 N 0.17793(16) -0.1309(3) 0.0498(2)
O1 O 0.60103(12) -0.0798(2) 0.17216(15)
O2 O 0.59228(15) -0.0108(3) 0.27057(17)
O3 O 0.58800(14) -0.5438(3) 0.11094(16)
O4 O 0.57873(13) -0.6896(2) 0.18765(15)
O5 O 0.56515(14) -0.3334(3) 0.43289(15)
O6 O 0.56057(15) -0.5458(3) 0.40966(16)
O7 O 0.60326(13) 0.1603(2) 0.07399(15)
H16 H 0.5998 0.1095 0.0420
O8 O -0.00985(15) -0.1594(3) 0.00325(18)
H17 H -0.0369 -0.2006 -0.0281
H18 H -0.0224 -0.1264 0.0327
Zn1G Zn 0.09280(2) 0.38074(4) -0.33783(3)
Zn1_2 Zn 0.59280(2) -0.88074(4) 0.16217(3)
Zn2B Zn 0.58624(3) -0.66755(4) 0.03547(3)
Zn2G Zn 0.58624(3) -0.33245(4) 0.53547(3)
Zn2B_2 Zn 0.58624(3) 0.33245(4) 0.03547(3)
N7G N 0.68032(15) 0.1418(3) 0.23478(18)
O3B O 0.08800(14) -0.0438(3) 0.11094(16)
O4_2 O 0.57873(13) 0.3104(2) 0.18765(15)
O5G O 0.06515(14) -0.1666(3) -0.06711(15)
O7B O 0.10326(13) -0.3397(2) 0.07399(15)
H16B H 0.0998 -0.3905 0.0420
loop_
_geom_bond_atom_site_label_1
_geom_bond_atom_site_label_2
_geom_bond_site_symmetry_1
_geom_bond_site_symmetry_2
Zn1 N1 1_555 1_555
Zn2 N8 1_555 1_555
C1 H1 1_555 1_555
C2 H2 1_555 1_555
C3 H3 1_555 1_555
H4 C3 1_555 1_555
C4 C5 1_555 1_555
C5 C6 1_555 1_555
C6 H5 1_555 1_555
C7 C6 1_555 1_555
H6 C7 1_555 1_555
C8 C7 1_555 1_555
H7 C8 1_555 1_555
C9 C5 1_555 1_555
H8 C9 1_555 1_555
C10 C11 1_555 1_555
C11 C12 1_555 1_555
C12 H9 1_555 1_555
C13 C12 1_555 1_555
H10 C13 1_555 1_555
C14 C13 1_555 1_555
H11 C14 1_555 1_555
C15 C11 1_555 1_555
H12 C15 1_555 1_555
C16 C21 1_555 1_555
C17 C23 1_555 1_555
C18 C19 1_555 1_555
C19 C20 1_555 1_555
C20 H13 1_555 1_555
C21 C20 1_555 1_555
C22 C21 1_555 1_555
H14 C22 1_555 1_555
C23 C22 1_555 1_555
C24 C19 1_555 1_555
H15 C24 1_555 1_555
N1 C1 1_555 1_555
N2 C1 1_555 1_555
N3 C2 1_555 1_555
N4 C3 1_555 1_555
N5 C4 1_555 1_555
N6 C4 1_555 1_555
N7 C8 1_555 1_555
N8 C14 1_555 1_555
O1 Zn1 1_555 1_555
O2 C16 1_555 1_555
O3 C17 1_555 1_555
O4 C17 1_555 1_555
O5 C18 1_555 1_555
O6 C18 1_555 1_555
O7 Zn1 1_555 1_555
H16 O7 1_555 1_555
O8 Zn2 1_555 1_555
H17 O8 1_555 1_555
H18 O8 1_555 1_555
Zn1G N7 1_555 1_555
Zn1_2 O4 1_555 1_555
Zn2B O3 1_555 1_555
Zn2G O5 1_555 1_555
Zn2B_2 O7 1_555 1_555
N7G Zn1 1_555 1_555
O3B Zn2 1_555 1_555
O4_2 Zn1 1_555 1_555
O5G Zn2 1_555 1_555
O7B Zn2 1_555 1_555
H16B O7B 1_555 1_555
C2 N1 1_555 1_555
C3 N3 1_555 1_555
C9 N7 1_555 1_555
C10 N4 1_555 1_555
C10 N6 1_555 1_555
C15 N8 1_555 1_555
C16 O1 1_555 1_555
C23 C24 1_555 1_555
N2 N3 1_555 1_555
N4 N5 1_555 1_555

#END
