
#######################################################################
#
#                 Cambridge Crystallographic Data Centre
#                                CCDC 
#
#######################################################################
#
# If this CIF has been generated from an entry in the Cambridge 
# Structural Database, then it will include bibliographic, chemical, 
# crystal, experimental, refinement or atomic coordinate data resulting 
# from the CCDC's data processing and validation procedures.
#
#######################################################################

data_ZEFZOB
_symmetry_cell_setting           orthorhombic
_symmetry_space_group_name_H-M   'F d d 2'
_symmetry_Int_Tables_number      43
_space_group_name_Hall           'F 2 -2d'
loop_
_symmetry_equiv_pos_site_id
_symmetry_equiv_pos_as_xyz
1 x,y,z
2 -x,-y,z
3 1/4+x,1/4-y,1/4+z
4 1/4-x,1/4+y,1/4+z
5 x,1/2+y,1/2+z
6 -x,1/2-y,1/2+z
7 1/4+x,3/4-y,3/4+z
8 1/4-x,3/4+y,3/4+z
9 1/2+x,y,1/2+z
10 1/2-x,-y,1/2+z
11 3/4+x,1/4-y,3/4+z
12 3/4-x,1/4+y,3/4+z
13 1/2+x,1/2+y,z
14 1/2-x,1/2-y,z
15 3/4+x,3/4-y,1/4+z
16 3/4-x,3/4+y,1/4+z
_cell_length_a                   35.890(8)
_cell_length_b                   55.191(12)
_cell_length_c                   16.106(4)
_cell_angle_alpha                90
_cell_angle_beta                 90
_cell_angle_gamma                90
_cell_volume                     31902.8
loop_
_atom_site_label
_atom_site_type_symbol
_atom_site_fract_x
_atom_site_fract_y
_atom_site_fract_z
Pr1 Pr 0.616316(4) 0.158069(3) 0.258372(11)
Cl1 Cl 0.62341(7) 0.12537(5) 0.36197(16)
Cl2 Cl 0.56956(7) 0.18084(5) 0.18178(15)
O1 O 0.63995(11) 0.20180(6) 0.2430(3)
O2 O 0.60331(7) 0.18163(5) 0.38762(19)
O3 O 0.63968(8) 0.16796(6) 0.1140(2)
O4 O 0.66466(6) 0.13011(4) 0.20702(15)
O5 O 0.61377(6) 0.08552(5) 0.47942(15)
O6 O 0.64431(6) 0.13670(5) 0.52121(16)
O7 O 0.67635(6) 0.16369(5) 0.34181(15)
O8 O 0.62849(7) 0.08196(5) 0.28915(16)
O9 O 0.77920(6) 0.03349(5) 0.32190(16)
O10 O 0.80157(6) 0.09916(4) 0.56827(15)
O11 O 0.83110(6) 0.12330(4) 0.42261(15)
O12 O 0.81157(7) 0.08249(5) 0.26713(16)
O13 O 0.77008(6) 0.04454(4) 0.51699(17)
N1 N 0.67508(8) 0.06411(5) 0.21275(18)
N2 N 0.72716(8) 0.13676(5) 0.17604(18)
N3 N 0.71948(8) 0.05973(6) 0.59212(18)
N4 N 0.65692(9) 0.07526(6) 0.58073(19)
N5 N 0.73544(8) 0.04413(5) 0.22401(18)
N6 N 0.65426(8) 0.04513(5) 0.3239(2)
N7 N 0.70343(8) 0.10062(5) 0.15378(17)
N8 N 0.74290(8) 0.09924(6) 0.62610(17)
N9 N 0.76443(8) 0.08145(5) 0.16933(17)
N10 N 0.70422(8) 0.14760(6) 0.55532(18)
N11 N 0.64722(9) 0.05043(6) 0.4726(2)
N12 N 0.78514(7) 0.11705(5) 0.21482(17)
N13 N 0.72708(8) 0.16694(5) 0.42871(18)
N14 N 0.71580(8) 0.02709(5) 0.3407(2)
N15 N 0.79704(8) 0.14536(5) 0.32653(19)
N16 N 0.73683(7) 0.16474(5) 0.29317(18)
N17 N 0.76763(8) 0.13469(5) 0.58529(16)
N18 N 0.70913(8) 0.03254(5) 0.49126(19)
N19 N 0.79167(7) 0.15440(5) 0.46033(18)
N20 N 0.67927(8) 0.11538(6) 0.61613(18)
C1 C 0.73251(10) 0.14149(6) 0.6212(2)
C2 C 0.81723(12) 0.20415(8) 0.4265(3)
H1 H 0.8336 0.1961 0.4656
H2 H 0.8208 0.2215 0.4328
C3 C 0.71394(12) 0.11862(9) 0.7512(2)
H3 H 0.7389 0.1201 0.7736
H4 H 0.7031 0.1038 0.7726
C4 C 0.74349(14) 0.09427(9) 0.0282(2)
H5 H 0.7341 0.0783 0.0145
H6 H 0.7276 0.1061 0.0014
C5 C 0.74122(10) 0.09783(7) 0.1227(2)
C6 C 0.82765(13) 0.19693(9) 0.3406(3)
H7 H 0.8404 0.2104 0.3144
H8 H 0.8451 0.1835 0.3437
C7 C 0.67934(13) 0.00112(8) 0.6256(3)
H9 H 0.7023 -0.0048 0.6013
H10 H 0.6662 -0.0127 0.6487
C8 C 0.76707(10) 0.17164(6) 0.4220(2)
C9 C 0.65533(11) 0.01247(7) 0.5569(3)
H11 H 0.6304 0.0155 0.5779
H12 H 0.6534 0.0013 0.5105
C10 C 0.67089(12) 0.04347(8) 0.6876(3)
H13 H 0.6441 0.0422 0.6938
H14 H 0.6803 0.0540 0.7309
C11 C 0.79575(10) 0.18957(6) 0.2868(3)
H15 H 0.7789 0.2032 0.2799
H16 H 0.8050 0.1850 0.2325
C12 C 0.70239(15) 0.00096(9) 0.1356(3)
H17 H 0.7293 0.0018 0.1304
H18 H 0.6929 -0.0088 0.0903
C13 C 0.74257(9) 0.07407(7) 0.6475(2)
H19 H 0.7679 0.0679 0.6459
H20 H 0.7334 0.0723 0.7039
C14 C 0.68564(13) 0.02697(7) 0.1300(3)
H21 H 0.6588 0.0260 0.1245
H22 H 0.6954 0.0351 0.0813
C15 C 0.68865(13) 0.01851(8) 0.6951(3)
H23 H 0.6808 0.0113 0.7472
H24 H 0.7155 0.0205 0.6973
C16 C 0.65210(10) 0.09706(8) 0.6330(2)
H25 H 0.6538 0.0924 0.6910
H26 H 0.6274 0.1037 0.6237
C17 C 0.67460(10) 0.08294(6) 0.14528(19)
H27 H 0.6507 0.0911 0.1458
H28 H 0.6772 0.0750 0.0920
C18 C 0.69234(13) -0.01078(9) 0.2175(4)
H29 H 0.6811 -0.0264 0.2063
H30 H 0.7151 -0.0136 0.2485
C19 C 0.65095(9) 0.06572(6) 0.27573(18)
C20 C 0.71605(9) 0.11715(7) 0.6560(2)
C21 C 0.66615(11) 0.00361(7) 0.2709(3)
H31 H 0.6426 0.0056 0.2421
H32 H 0.6614 -0.0052 0.3220
C22 C 0.67350(10) 0.13360(7) 0.5598(2)
C23 C 0.77368(8) 0.11015(6) 0.59024(19)
C24 C 0.73618(13) 0.16180(8) 0.6842(2)
H33 H 0.7565 0.1582 0.7219
H34 H 0.7420 0.1768 0.6557
C25 C 0.68206(10) 0.02850(7) 0.2915(2)
C26 C 0.77420(9) 0.16786(6) 0.3261(2)
C27 C 0.76228(11) 0.05529(7) 0.1674(2)
H35 H 0.7561 0.0503 0.1113
H36 H 0.7868 0.0489 0.1800
C28 C 0.77810(11) 0.13600(9) 0.0727(3)
H37 H 0.7922 0.1500 0.0912
H38 H 0.7593 0.1415 0.0339
C29 C 0.77687(11) 0.19778(6) 0.4472(3)
H39 H 0.7729 0.1997 0.5064
H40 H 0.7604 0.2089 0.4185
C30 C 0.63119(10) 0.04159(7) 0.3958(3)
H41 H 0.6076 0.0497 0.3867
H42 H 0.6261 0.0244 0.4017
C31 C 0.72828(10) 0.16232(6) 0.2047(2)
H43 H 0.7043 0.1698 0.1937
H44 H 0.7469 0.1710 0.1729
C32 C 0.71853(11) 0.01703(7) 0.4226(2)
H45 H 0.7025 0.0029 0.4250
H46 H 0.7439 0.0114 0.4305
C33 C 0.69574(9) 0.04159(6) 0.2088(2)
C34 C 0.70481(9) 0.16943(6) 0.5024(2)
H47 H 0.7143 0.1829 0.5347
H48 H 0.6795 0.1733 0.4863
C35 C 0.73604(10) 0.04565(6) 0.5314(2)
C36 C 0.68049(10) 0.05409(7) 0.6011(2)
C37 C 0.67266(9) 0.03625(6) 0.5276(2)
C38 C 0.69587(9) 0.12353(7) 0.1812(2)
C39 C 0.75911(9) 0.12400(6) 0.14781(19)
C40 C 0.79543(9) 0.15058(6) 0.5506(2)
H49 H 0.7939 0.1662 0.5783
H50 H 0.8199 0.1439 0.5618
C41 C 0.74715(10) 0.03465(6) 0.2986(2)
C42 C 0.80849(9) 0.13911(6) 0.4058(2)
C43 C 0.78915(9) 0.09310(6) 0.2224(2)
C44 C 0.81148(8) 0.13347(7) 0.2551(2)
H51 H 0.8192 0.1456 0.2152
H52 H 0.8334 0.1243 0.2710
C45 C 0.63671(9) 0.07158(6) 0.5075(3)
C46 C 0.71054(8) 0.16503(6) 0.35340(19)
C47 C 0.80365(14) 0.11853(10) 0.0300(3)
H53 H 0.8167 0.1269 -0.0142
H54 H 0.8221 0.1128 0.0694
C48 C 0.69032(17) 0.14042(12) 0.7800(3)
H55 H 0.6642 0.1367 0.7713
H56 H 0.6940 0.1427 0.8392
C49 C 0.69974(14) 0.16489(11) 0.7341(3)
H57 H 0.7026 0.1778 0.7744
H58 H 0.6795 0.1692 0.6969
C50 C 0.78328(16) 0.09681(11) -0.0064(3)
H59 H 0.7821 0.0985 -0.0663
H60 H 0.7972 0.0822 0.0060
Pr1B Pr 0.866316(4) 0.091931(3) 0.508372(11)
O10J O 0.55157(6) 0.15084(4) 0.31827(15)
O11J O 0.58110(6) 0.12670(4) 0.17261(15)
loop_
_geom_bond_atom_site_label_1
_geom_bond_atom_site_label_2
_geom_bond_site_symmetry_1
_geom_bond_site_symmetry_2
Pr1 Cl1 1_555 1_555
Cl2 Pr1 1_555 1_555
O1 Pr1 1_555 1_555
O2 Pr1 1_555 1_555
O3 Pr1 1_555 1_555
O4 Pr1 1_555 1_555
O5 C45 1_555 1_555
O6 C22 1_555 1_555
O7 Pr1 1_555 1_555
O8 C19 1_555 1_555
O9 C41 1_555 1_555
O10 C23 1_555 1_555
O11 C42 1_555 1_555
O12 C43 1_555 1_555
O13 C35 1_555 1_555
N1 C17 1_555 1_555
N2 C31 1_555 1_555
N3 C13 1_555 1_555
N4 C16 1_555 1_555
N5 C27 1_555 1_555
N6 C19 1_555 1_555
N7 C5 1_555 1_555
N8 C13 1_555 1_555
N9 C5 1_555 1_555
N10 C1 1_555 1_555
N11 C30 1_555 1_555
N12 C39 1_555 1_555
N13 C8 1_555 1_555
N14 C25 1_555 1_555
N15 C26 1_555 1_555
N16 C26 1_555 1_555
N17 C1 1_555 1_555
N18 C32 1_555 1_555
N19 C8 1_555 1_555
N20 C16 1_555 1_555
C1 C20 1_555 1_555
C2 H1 1_555 1_555
H2 C2 1_555 1_555
C3 H3 1_555 1_555
H4 C3 1_555 1_555
C4 H5 1_555 1_555
H6 C4 1_555 1_555
C5 C4 1_555 1_555
C6 C2 1_555 1_555
H7 C6 1_555 1_555
H8 C6 1_555 1_555
C7 H9 1_555 1_555
H10 C7 1_555 1_555
C8 C26 1_555 1_555
C9 C7 1_555 1_555
H11 C9 1_555 1_555
H12 C9 1_555 1_555
C10 H13 1_555 1_555
H14 C10 1_555 1_555
C11 C6 1_555 1_555
H15 C11 1_555 1_555
H16 C11 1_555 1_555
C12 H17 1_555 1_555
H18 C12 1_555 1_555
C13 H19 1_555 1_555
H20 C13 1_555 1_555
C14 C12 1_555 1_555
H21 C14 1_555 1_555
H22 C14 1_555 1_555
C15 C7 1_555 1_555
H23 C15 1_555 1_555
H24 C15 1_555 1_555
C16 H25 1_555 1_555
H26 C16 1_555 1_555
C17 N7 1_555 1_555
H27 C17 1_555 1_555
H28 C17 1_555 1_555
C18 C12 1_555 1_555
H29 C18 1_555 1_555
H30 C18 1_555 1_555
C19 N1 1_555 1_555
C20 N8 1_555 1_555
C21 C18 1_555 1_555
H31 C21 1_555 1_555
H32 C21 1_555 1_555
C22 N10 1_555 1_555
C23 N8 1_555 1_555
C24 C1 1_555 1_555
H33 C24 1_555 1_555
H34 C24 1_555 1_555
C25 N6 1_555 1_555
C26 C11 1_555 1_555
C27 N9 1_555 1_555
H35 C27 1_555 1_555
H36 C27 1_555 1_555
C28 H37 1_555 1_555
H38 C28 1_555 1_555
C29 C2 1_555 1_555
H39 C29 1_555 1_555
H40 C29 1_555 1_555
C30 N6 1_555 1_555
H41 C30 1_555 1_555
H42 C30 1_555 1_555
C31 N16 1_555 1_555
H43 C31 1_555 1_555
H44 C31 1_555 1_555
C32 N14 1_555 1_555
H45 C32 1_555 1_555
H46 C32 1_555 1_555
C33 N1 1_555 1_555
C34 N10 1_555 1_555
H47 C34 1_555 1_555
H48 C34 1_555 1_555
C35 N3 1_555 1_555
C36 N3 1_555 1_555
C37 N11 1_555 1_555
C38 O4 1_555 1_555
C39 N2 1_555 1_555
C40 N17 1_555 1_555
H49 C40 1_555 1_555
H50 C40 1_555 1_555
C41 N5 1_555 1_555
C42 N15 1_555 1_555
C43 N9 1_555 1_555
C44 N12 1_555 1_555
H51 C44 1_555 1_555
H52 C44 1_555 1_555
C45 N4 1_555 1_555
C46 O7 1_555 1_555
C47 C28 1_555 1_555
H53 C47 1_555 1_555
H54 C47 1_555 1_555
C48 C3 1_555 1_555
H55 C48 1_555 1_555
H56 C48 1_555 1_555
C49 C24 1_555 1_555
H57 C49 1_555 1_555
H58 C49 1_555 1_555
C50 C4 1_555 1_555
H59 C50 1_555 1_555
H60 C50 1_555 1_555
Pr1B O10 1_555 1_555
O10J Pr1 1_555 1_555
O11J Pr1 1_555 1_555
O11 Pr1B 1_555 1_555
N2 C38 1_555 1_555
N4 C36 1_555 1_555
N5 C33 1_555 1_555
N7 C38 1_555 1_555
N11 C45 1_555 1_555
N12 C43 1_555 1_555
N13 C34 1_555 1_555
N13 C46 1_555 1_555
N14 C41 1_555 1_555
N15 C44 1_555 1_555
N16 C46 1_555 1_555
N17 C23 1_555 1_555
N18 C35 1_555 1_555
N18 C37 1_555 1_555
N19 C40 1_555 1_555
N19 C42 1_555 1_555
N20 C20 1_555 1_555
N20 C22 1_555 1_555
C3 C20 1_555 1_555
C5 C39 1_555 1_555
C8 C29 1_555 1_555
C9 C37 1_555 1_555
C10 C15 1_555 1_555
C10 C36 1_555 1_555
C14 C33 1_555 1_555
C21 C25 1_555 1_555
C25 C33 1_555 1_555
C28 C39 1_555 1_555
C36 C37 1_555 1_555
C47 C50 1_555 1_555
C48 C49 1_555 1_555

#END
