
#######################################################################
#
#                 Cambridge Crystallographic Data Centre
#                                CCDC 
#
#######################################################################
#
# If this CIF has been generated from an entry in the Cambridge 
# Structural Database, then it will include bibliographic, chemical, 
# crystal, experimental, refinement or atomic coordinate data resulting 
# from the CCDC's data processing and validation procedures.
#
#######################################################################

data_ZEGBAQ
_symmetry_cell_setting           orthorhombic
_symmetry_space_group_name_H-M   'F d d 2'
_symmetry_Int_Tables_number      43
_space_group_name_Hall           'F 2 -2d'
loop_
_symmetry_equiv_pos_site_id
_symmetry_equiv_pos_as_xyz
1 x,y,z
2 -x,-y,z
3 1/4+x,1/4-y,1/4+z
4 1/4-x,1/4+y,1/4+z
5 x,1/2+y,1/2+z
6 -x,1/2-y,1/2+z
7 1/4+x,3/4-y,3/4+z
8 1/4-x,3/4+y,3/4+z
9 1/2+x,y,1/2+z
10 1/2-x,-y,1/2+z
11 3/4+x,1/4-y,3/4+z
12 3/4-x,1/4+y,3/4+z
13 1/2+x,1/2+y,z
14 1/2-x,1/2-y,z
15 3/4+x,3/4-y,1/4+z
16 3/4-x,3/4+y,1/4+z
_cell_length_a                   35.869(15)
_cell_length_b                   55.15(2)
_cell_length_c                   16.021(6)
_cell_angle_alpha                90
_cell_angle_beta                 90
_cell_angle_gamma                90
_cell_volume                     31692.3
loop_
_atom_site_label
_atom_site_type_symbol
_atom_site_fract_x
_atom_site_fract_y
_atom_site_fract_z
Ce1 Ce 0.366793(6) 0.091838(4) 0.92206(2)
Cl1 Cl 0.37445(8) 0.12446(6) 1.0255(3)
Cl2 Cl 0.31830(8) 0.06937(5) 0.8432(2)
O1 O 0.36465(8) 0.16424(7) 1.1413(2)
O2 O 0.41572(9) 0.11965(6) 0.8677(2)
O3 O 0.37985(8) 0.16754(7) 0.9487(3)
O4 O 0.42700(8) 0.08592(6) 1.0071(2)
O5 O 0.39498(8) 0.11375(6) 1.1836(2)
O6 O 0.56320(8) 0.16675(6) 0.9301(3)
O7 O 0.52968(8) 0.21614(6) 0.9857(3)
O8 O 0.55213(8) 0.15086(6) 1.2309(3)
O9 O 0.58111(8) 0.12608(6) 1.0864(2)
O10 O 0.52030(8) 0.20633(5) 1.1798(3)
O11 O 0.35321(10) 0.06765(8) 1.0506(3)
O12 O 0.38827(11) 0.08322(10) 0.7722(3)
O13 O 0.39123(15) 0.04768(9) 0.9052(5)
N1 N 0.49315(11) 0.15177(9) 1.2899(3)
N2 N 0.40793(11) 0.17484(10) 1.2438(3)
N3 N 0.51808(10) 0.11557(7) 1.2501(3)
N4 N 0.45391(10) 0.14951(7) 0.8172(3)
N5 N 0.43061(10) 0.13477(8) 1.2807(3)
N6 N 0.51594(10) 0.16744(7) 0.8329(3)
N7 N 0.46997(10) 0.19093(8) 1.2560(3)
N8 N 0.40529(10) 0.20478(6) 0.9871(3)
N9 N 0.53555(10) 0.13260(8) 0.8774(3)
N10 N 0.47679(10) 0.08344(7) 1.0946(3)
N11 N 0.54745(9) 0.10437(6) 0.9931(3)
N12 N 0.42638(11) 0.18528(7) 0.8729(3)
N13 N 0.46020(10) 0.21823(7) 1.1527(3)
N14 N 0.48708(11) 0.20549(8) 0.8857(3)
N15 N 0.47840(10) 0.11264(7) 0.8409(3)
N16 N 0.45421(10) 0.10297(8) 1.2204(3)
N17 N 0.46701(10) 0.22296(7) 1.0036(3)
N18 N 0.54166(10) 0.09600(7) 1.1275(3)
N19 N 0.48713(9) 0.08436(7) 0.9587(3)
N20 N 0.39835(10) 0.20028(6) 1.1330(3)
C1 C 0.42631(13) 0.16562(9) 0.8088(4)
C2 C 0.52545(11) 0.08159(8) 0.9929(3)
C3 C 0.45241(18) 0.24886(10) 0.8004(6)
H1 H 0.4435 0.2582 0.7530
H2 H 0.4794 0.2482 0.7970
C4 C 0.46572(19) 0.13242(13) 1.3224(4)
C5 C 0.42523(14) 0.11652(10) 1.2267(3)
C6 C 0.57795(17) 0.05271(12) 1.0129(5)
H3 H 0.6027 0.0528 0.9958
C7 C 0.42115(17) 0.20683(11) 1.3521(4)
H4 H 0.4304 0.1961 1.3954
H5 H 0.3943 0.2081 1.3583
C8 C 0.40569(15) 0.23641(10) 1.2177(4)
H6 H 0.4020 0.2472 1.1706
H7 H 0.3814 0.2326 1.2407
C9 C 0.43668(19) 0.22231(11) 0.7935(5)
H8 H 0.4468 0.2145 0.7443
H9 H 0.4098 0.2228 0.7879
C10 C 0.51281(13) 0.19369(10) 0.8299(4)
H10 H 0.5060 0.1981 0.7734
H11 H 0.5374 0.2004 0.8403
C11 C 0.43271(12) 0.22083(8) 0.9501(4)
C12 C 0.43809(19) 0.23082(12) 1.3613(4)
H12 H 0.4296 0.2377 1.4136
H13 H 0.4649 0.2287 1.3654
C13 C 0.48672(12) 0.20474(9) 1.1938(3)
C14 C 0.50965(13) 0.12474(9) 0.8112(3)
C15 C 0.4423(2) 0.26104(14) 0.8745(6)
H14 H 0.4645 0.2650 0.9061
H15 H 0.4297 0.2761 0.8606
C16 C 0.54581(12) 0.05979(9) 0.9562(4)
H16 H 0.5552 0.0638 0.9012
H17 H 0.5287 0.0463 0.9507
C17 C 0.42290(12) 0.21405(9) 1.1881(4)
C18 C 0.40235(14) 0.15309(10) 1.2967(4)
H18 H 0.3779 0.1463 1.2856
H19 H 0.4033 0.1578 1.3550
C19 C 0.52694(14) 0.05196(9) 1.1141(5)
H20 H 0.5109 0.0410 1.0833
H21 H 0.5217 0.0500 1.1731
C20 C 0.43094(14) 0.19565(11) 1.2615(4)
C21 C 0.54538(13) 0.10003(10) 1.2121(3)
H22 H 0.5446 0.0845 1.2402
H23 H 0.5698 0.1070 1.2220
C22 C 0.53943(11) 0.15562(9) 0.8856(3)
C23 C 0.52377(12) 0.14008(9) 1.2541(3)
C24 C 0.38235(12) 0.20844(9) 1.0556(4)
H24 H 0.3768 0.2256 1.0601
H25 H 0.3590 0.2000 1.0465
C25 C 0.45555(12) 0.08061(9) 1.1683(4)
H26 H 0.4303 0.0760 1.1532
H27 H 0.4661 0.0675 1.2011
C26 C 0.52850(15) 0.11273(11) 0.7379(4)
H28 H 0.5424 0.0988 0.7581
H29 H 0.5095 0.1068 0.7002
C27 C 0.47977(13) 0.08762(8) 0.8713(3)
H30 H 0.4989 0.0791 0.8402
H31 H 0.4561 0.0800 0.8586
C28 C 0.44714(12) 0.12578(8) 0.8450(3)
C29 C 0.56623(17) 0.04565(10) 1.0979(5)
H32 H 0.5695 0.0283 1.1047
H33 H 0.5820 0.0538 1.1384
C30 C 0.44679(11) 0.20829(9) 0.8683(4)
C31 C 0.46047(10) 0.08467(8) 1.0200(3)
C32 C 0.55971(11) 0.10991(8) 1.0718(4)
C33 C 0.40209(12) 0.18409(9) 0.9369(4)
C34 C 0.41673(13) 0.24535(9) 0.9274(5)
H34 H 0.3936 0.2429 0.8973
H35 H 0.4109 0.2540 0.9784
C35 C 0.49805(12) 0.21491(8) 0.9592(3)
C36 C 0.38743(11) 0.17919(9) 1.1721(5)
C37 C 0.56229(11) 0.11566(9) 0.9150(4)
H36 H 0.5681 0.1030 0.8750
H37 H 0.5852 0.1242 0.9277
C38 C 0.4925(2) 0.15085(14) 0.7858(4)
C39 C 0.46449(19) 0.13058(13) 1.4147(4)
H38 H 0.4543 0.1455 1.4370
H39 H 0.4898 0.1290 1.4355
C40 C 0.46990(13) 0.23298(9) 1.0805(4)
H40 H 0.4954 0.2384 1.0876
H41 H 0.4543 0.2473 1.0816
C41 C 0.48256(18) 0.10866(12) 1.2848(4)
C42 C 0.49187(13) 0.17599(9) 1.3114(3)
H42 H 0.4817 0.1774 1.3674
H43 H 0.5171 0.1823 1.3128
C43 C 0.48598(19) 0.08919(12) 1.3501(4)
H44 H 0.5057 0.0934 1.3888
H45 H 0.4926 0.0740 1.3235
C44 C 0.53364(19) 0.15260(13) 0.6601(5)
H46 H 0.5326 0.1528 0.5996
H47 H 0.5477 0.1667 0.6778
C45 C 0.51827(13) 0.07807(8) 1.0884(4)
C46 C 0.42965(17) 0.25034(15) 1.2873(5)
H48 H 0.4528 0.2563 1.2636
H49 H 0.4158 0.2640 1.3091
C47 C 0.4963(2) 0.15417(14) 0.6929(4)
H50 H 0.4861 0.1699 0.6783
H51 H 0.4811 0.1420 0.6654
C48 C 0.5547(2) 0.12895(15) 0.6897(5)
H52 H 0.5756 0.1334 0.7247
H53 H 0.5642 0.1203 0.6415
C49 C 0.45130(18) 0.08623(12) 1.3955(4)
H54 H 0.4311 0.0828 1.3571
H55 H 0.4534 0.0728 1.4345
C50 C 0.4431(2) 0.11096(13) 1.4451(4)
H56 H 0.4486 0.1086 1.5038
H57 H 0.4169 0.1149 1.4401
Ce1B Ce 0.616793(6) 0.158162(4) 1.17206(2)
O8J O 0.30213(8) 0.09914(6) 0.9809(3)
O9J O 0.33111(8) 0.12392(6) 0.8364(2)
loop_
_geom_bond_atom_site_label_1
_geom_bond_atom_site_label_2
_geom_bond_site_symmetry_1
_geom_bond_site_symmetry_2
Ce1 Cl1 1_555 1_555
Cl2 Ce1 1_555 1_555
O1 C36 1_555 1_555
O2 Ce1 1_555 1_555
O3 C33 1_555 1_555
O4 Ce1 1_555 1_555
O5 C5 1_555 1_555
O6 C22 1_555 1_555
O7 C35 1_555 1_555
O8 C23 1_555 1_555
O9 C32 1_555 1_555
O10 C13 1_555 1_555
O11 Ce1 1_555 1_555
O12 Ce1 1_555 1_555
O13 Ce1 1_555 1_555
N1 C4 1_555 1_555
N2 C18 1_555 1_555
N3 C21 1_555 1_555
N4 C1 1_555 1_555
N5 C4 1_555 1_555
N6 C10 1_555 1_555
N7 C13 1_555 1_555
N8 C11 1_555 1_555
N9 C14 1_555 1_555
N10 C25 1_555 1_555
N11 C2 1_555 1_555
N12 C1 1_555 1_555
N13 C13 1_555 1_555
N14 C10 1_555 1_555
N15 C14 1_555 1_555
N16 C5 1_555 1_555
N17 C11 1_555 1_555
N18 C21 1_555 1_555
N19 C2 1_555 1_555
N20 C17 1_555 1_555
C2 C16 1_555 1_555
C3 H1 1_555 1_555
H2 C3 1_555 1_555
C4 C39 1_555 1_555
C5 N5 1_555 1_555
C6 H3 1_555 1_555
C7 H4 1_555 1_555
H5 C7 1_555 1_555
C8 H6 1_555 1_555
H7 C8 1_555 1_555
C9 C3 1_555 1_555
H8 C9 1_555 1_555
H9 C9 1_555 1_555
C10 H10 1_555 1_555
H11 C10 1_555 1_555
C11 C30 1_555 1_555
C12 C7 1_555 1_555
H12 C12 1_555 1_555
H13 C12 1_555 1_555
C14 C26 1_555 1_555
C15 C3 1_555 1_555
H14 C15 1_555 1_555
H15 C15 1_555 1_555
C16 C6 1_555 1_555
H16 C16 1_555 1_555
H17 C16 1_555 1_555
C17 N13 1_555 1_555
C18 N5 1_555 1_555
H18 C18 1_555 1_555
H19 C18 1_555 1_555
C19 H20 1_555 1_555
H21 C19 1_555 1_555
C20 N2 1_555 1_555
C21 H22 1_555 1_555
H23 C21 1_555 1_555
C22 N6 1_555 1_555
C23 N1 1_555 1_555
C24 N8 1_555 1_555
H24 C24 1_555 1_555
H25 C24 1_555 1_555
C25 N16 1_555 1_555
H26 C25 1_555 1_555
H27 C25 1_555 1_555
C26 H28 1_555 1_555
H29 C26 1_555 1_555
C27 N15 1_555 1_555
H30 C27 1_555 1_555
H31 C27 1_555 1_555
C28 O2 1_555 1_555
C29 C6 1_555 1_555
H32 C29 1_555 1_555
H33 C29 1_555 1_555
C30 N12 1_555 1_555
C31 O4 1_555 1_555
C32 N11 1_555 1_555
C33 N8 1_555 1_555
C34 C11 1_555 1_555
H34 C34 1_555 1_555
H35 C34 1_555 1_555
C35 N14 1_555 1_555
C36 N2 1_555 1_555
C37 N9 1_555 1_555
H36 C37 1_555 1_555
H37 C37 1_555 1_555
C38 N4 1_555 1_555
C39 H38 1_555 1_555
H39 C39 1_555 1_555
C40 N13 1_555 1_555
H40 C40 1_555 1_555
H41 C40 1_555 1_555
C41 N3 1_555 1_555
C42 N1 1_555 1_555
H42 C42 1_555 1_555
H43 C42 1_555 1_555
C43 C41 1_555 1_555
H44 C43 1_555 1_555
H45 C43 1_555 1_555
C44 H46 1_555 1_555
H47 C44 1_555 1_555
C45 N10 1_555 1_555
C46 C8 1_555 1_555
H48 C46 1_555 1_555
H49 C46 1_555 1_555
C47 C38 1_555 1_555
H50 C47 1_555 1_555
H51 C47 1_555 1_555
C48 C26 1_555 1_555
H52 C48 1_555 1_555
H53 C48 1_555 1_555
C49 C43 1_555 1_555
H54 C49 1_555 1_555
H55 C49 1_555 1_555
C50 C39 1_555 1_555
H56 C50 1_555 1_555
H57 C50 1_555 1_555
Ce1B O8 1_555 1_555
O8J Ce1 1_555 1_555
O9J Ce1 1_555 1_555
O9 Ce1B 1_555 1_555
N3 C23 1_555 1_555
N4 C28 1_555 1_555
N6 C38 1_555 1_555
N7 C20 1_555 1_555
N7 C42 1_555 1_555
N9 C22 1_555 1_555
N10 C31 1_555 1_555
N11 C37 1_555 1_555
N12 C33 1_555 1_555
N14 C30 1_555 1_555
N15 C28 1_555 1_555
N16 C41 1_555 1_555
N17 C35 1_555 1_555
N17 C40 1_555 1_555
N18 C32 1_555 1_555
N18 C45 1_555 1_555
N19 C27 1_555 1_555
N19 C31 1_555 1_555
N20 C24 1_555 1_555
N20 C36 1_555 1_555
C2 C45 1_555 1_555
C4 C41 1_555 1_555
C7 C20 1_555 1_555
C8 C17 1_555 1_555
C9 C30 1_555 1_555
C12 C46 1_555 1_555
C14 C38 1_555 1_555
C15 C34 1_555 1_555
C17 C20 1_555 1_555
C19 C29 1_555 1_555
C19 C45 1_555 1_555
C44 C47 1_555 1_555
C44 C48 1_555 1_555
C49 C50 1_555 1_555

#END
