
#######################################################################
#
#                 Cambridge Crystallographic Data Centre
#                                CCDC 
#
#######################################################################
#
# If this CIF has been generated from an entry in the Cambridge 
# Structural Database, then it will include bibliographic, chemical, 
# crystal, experimental, refinement or atomic coordinate data resulting 
# from the CCDC's data processing and validation procedures.
#
#######################################################################

data_ZEHNUX
_symmetry_cell_setting           orthorhombic
_symmetry_space_group_name_H-M   'P n n a'
_symmetry_Int_Tables_number      52
_space_group_name_Hall           '-P 2a 2bc'
loop_
_symmetry_equiv_pos_site_id
_symmetry_equiv_pos_as_xyz
1 x,y,z
2 x,1/2-y,1/2-z
3 1/2-x,1/2+y,1/2-z
4 1/2-x,-y,z
5 -x,-y,-z
6 -x,1/2+y,1/2+z
7 1/2+x,1/2-y,1/2+z
8 1/2+x,y,-z
_cell_length_a                   6.78052(22)
_cell_length_b                   15.64636(46)
_cell_length_c                   10.03918(31)
_cell_angle_alpha                90
_cell_angle_beta                 90
_cell_angle_gamma                90
_cell_volume                     1065.06
loop_
_atom_site_label
_atom_site_type_symbol
_atom_site_fract_x
_atom_site_fract_y
_atom_site_fract_z
C4 C 0.50000 0.00000 -0.786112
S1 S 0.766472 -0.006859 -0.786112
H4 H 0.457846 0.034272 -0.713373
O1 O 0.823938 -0.091334 -0.810752
H5 H 0.445483 -0.055932 -0.786319
H6 H 0.45588 0.019927 -0.870387
O2 O 0.656380 -0.052250 -0.876930
O3 O 0.659910 -0.026550 -0.666680
C4C C 1.00000 0.00000 -0.786112
S1C S 0.733528 0.006859 -0.786112
H4C H 1.042154 -0.034272 -0.713373
O1C O 0.676062 0.091334 -0.810752
H5C H 1.054517 0.055932 -0.786319
H6C H 1.04412 -0.019927 -0.870387
O2C O 0.843620 0.052250 -0.876930
O3C O 0.840090 0.026550 -0.666680
Ag1 Ag -0.73244(63) 0.25000 0.75000
C1 C -0.744070 0.266180 1.181300
C2 C -0.761670 0.218390 1.068760
H1 H -0.779890 0.158240 1.065160
N1 N -0.748610 0.271840 0.962300
N2 N -0.722930 0.352670 1.009030
H2 H -0.709350 0.402770 0.956380
C3 C -0.720130 0.349170 1.144380
H3 H -0.704230 0.396400 1.202870
Ag1_2 Ag -0.73244(63) 0.25000 1.75000
C1A C -0.744070 0.233820 1.318700
C2A C -0.761670 0.281610 1.431240
H1A H -0.779890 0.341760 1.434840
N1A N -0.748610 0.228160 1.537700
N1A_2 N -0.748610 0.228160 0.537700
N2A N -0.722930 0.147330 1.490970
H2A H -0.709350 0.097230 1.543620
C3A C -0.720130 0.150830 1.355620
H3A H -0.704230 0.103600 1.297130
loop_
_geom_bond_atom_site_label_1
_geom_bond_atom_site_label_2
_geom_bond_site_symmetry_1
_geom_bond_site_symmetry_2
Ag1 N1 1_555 1_555
C1 C2 1_555 1_555
C2 H1 1_555 1_555
N1 C2 1_555 1_555
N2 N1 1_555 1_555
H2 N2 1_555 1_555
C3 C1 1_555 1_555
H3 C3 1_555 1_555
C4 S1 1_555 1_555
S1 O1 1_555 1_555
H4 C4 1_555 1_555
O1 O2 1_555 1_555
H5 C4 1_555 1_555
H6 C4 1_555 1_555
O2 C4 1_555 1_555
O3 C4 1_555 1_555
Ag1_2 N1A 1_555 1_555
C1A C1 1_555 1_555
C2A C1A 1_555 1_555
H1A C2A 1_555 1_555
N1A C2A 1_555 1_555
N1A_2 Ag1 1_555 1_555
N2A N1A 1_555 1_555
H2A N2A 1_555 1_555
C3A C1A 1_555 1_555
H3A C3A 1_555 1_555
C4C S1 1_555 1_555
S1C C4 1_555 1_555
H4C C4C 1_555 1_555
O1C S1 1_555 1_555
H5C C4C 1_555 1_555
H6C C4C 1_555 1_555
O2C S1 1_555 1_555
O3C S1 1_555 1_555
N2 C3 1_555 1_555
S1 O2 1_555 1_555
S1 O3 1_555 1_555
S1 S1C 1_555 1_555
O1 S1C 1_555 1_555
O2 S1C 1_555 1_555
O3 S1C 1_555 1_555
O3 O3C 1_555 1_555
N2A C3A 1_555 1_555
C4C S1C 1_555 1_555
C4C O2C 1_555 1_555
C4C O3C 1_555 1_555
S1C O1C 1_555 1_555
S1C O2C 1_555 1_555
S1C O3C 1_555 1_555
O1C O2C 1_555 1_555

#END
