
#######################################################################
#
#                 Cambridge Crystallographic Data Centre
#                                CCDC 
#
#######################################################################
#
# If this CIF has been generated from an entry in the Cambridge 
# Structural Database, then it will include bibliographic, chemical, 
# crystal, experimental, refinement or atomic coordinate data resulting 
# from the CCDC's data processing and validation procedures.
#
#######################################################################

data_ZEHREL
_symmetry_cell_setting           monoclinic
_symmetry_space_group_name_H-M   'P 21'
_symmetry_Int_Tables_number      4
_space_group_name_Hall           'P 2yb'
loop_
_symmetry_equiv_pos_site_id
_symmetry_equiv_pos_as_xyz
1 x,y,z
2 -x,1/2+y,-z
_cell_length_a                   13.278(3)
_cell_length_b                   21.664(2)
_cell_length_c                   14.129(3)
_cell_angle_alpha                90
_cell_angle_beta                 107.720(10)
_cell_angle_gamma                90
_cell_volume                     3871.44
loop_
_atom_site_label
_atom_site_type_symbol
_atom_site_fract_x
_atom_site_fract_y
_atom_site_fract_z
C1 C 0.5732(9) 0.9437(7) 0.6611(8)
H1 H 0.5194 0.9358 0.6931
H2 H 0.5769 0.9879 0.6523
C2 C 0.5403(9) 0.9124(7) 0.5583(8)
H3 H 0.5966 0.9177 0.5285
H4 H 0.5321 0.8684 0.567
C3 C 0.4399(9) 0.9371(7) 0.4886(8)
H5 H 0.4222 0.9128 0.4281
H6 H 0.4526 0.979 0.4711
C4 C 0.6783(10) 0.8346(6) 0.7437(9)
C5 C 0.5949(11) 0.8073(7) 0.7585(10)
H7 H 0.5406 0.831 0.7683
C6 C 0.5890(12) 0.7453(7) 0.7592(11)
H8 H 0.5281 0.727 0.7657
C7 C 0.6679(12) 0.7087(7) 0.7510(11)
H9 H 0.664 0.6661 0.7566
C8 C 0.7567(14) 0.7368(7) 0.7337(12)
H10 H 0.8108 0.7123 0.7251
C9 C 0.7636(11) 0.7976(7) 0.7298(10)
H11 H 0.8219 0.8162 0.7182
C10 C 0.8113(10) 0.8624(6) 1.0664(9)
C11 C 0.8098(11) 0.8145(6) 1.0037(10)
H12 H 0.8138 0.8229 0.9404
C12 C 0.8026(12) 0.7532(7) 1.0317(11)
H13 H 0.803 0.7212 0.9879
C13 C 0.7948(12) 0.7402(8) 1.1281(13)
H14 H 0.7908 0.6996 1.1482
C14 C 0.7931(12) 0.7900(8) 1.1928(10)
H15 H 0.7893 0.7827 1.2565
C15 C 0.7970(11) 0.8466(8) 1.1611(10)
H16 H 0.7902 0.8788 1.2023
C16 C 0.3164(8) 1.0853(7) 0.7654(8)
H17 H 0.305 1.0429 0.7815
H18 H 0.3353 1.1087 0.8269
C17 C 0.2120(10) 1.1110(7) 0.6962(8)
H19 H 0.1569 1.1061 0.7277
H20 H 0.2201 1.1548 0.6861
C18 C 0.1785(8) 1.0786(6) 0.5960(8)
H21 H 0.1763 1.0344 0.6068
H22 H 0.2315 1.0861 0.5629
C19 C 0.4353(10) 1.1673(6) 0.6790(9)
C20 C 0.4346(10) 1.1765(7) 0.5842(10)
H23 H 0.4257 1.1447 0.5382
C21 C 0.4490(12) 1.2406(7) 0.5603(11)
H24 H 0.4551 1.2499 0.498
C22 C 0.4538(12) 1.2862(8) 0.6234(12)
H25 H 0.4623 1.3265 0.6044
C23 C 0.4467(11) 1.2753(6) 0.7148(11)
H26 H 0.4476 1.3081 0.7575
C24 C 0.4382(10) 1.2165(6) 0.7449(9)
H27 H 0.4344 1.2088 0.8085
C25 C 0.5754(9) 1.1936(6) 1.0069(9)
C26 C 0.4999(11) 1.2304(6) 1.0189(10)
H28 H 0.441 1.2131 1.0312
C27 C 0.5078(13) 1.2962(7) 1.0133(11)
H29 H 0.4519 1.321 1.017
C28 C 0.5968(12) 1.3226(6) 1.0025(10)
H30 H 0.6042 1.3653 1.0047
C29 C 0.6773(11) 1.2854(7) 0.9880(10)
H31 H 0.7366 1.3032 0.9772
C30 C 0.6669(10) 1.2196(6) 0.9902(9)
H32 H 0.7195 1.1942 0.9807
C31 C 0.9372(9) 0.9384(7) 0.9884(8)
H33 H 0.92 0.9149 0.9271
H34 H 0.9529 0.9803 0.9735
C32 C 1.0355(9) 0.9106(7) 1.0619(8)
H35 H 1.0231 0.867 1.0693
H36 H 1.0939 0.9141 1.0343
C33 C 1.0677(9) 0.9404(6) 1.1639(7)
H37 H 1.0138 0.9321 1.1956
H38 H 1.0715 0.9848 1.1564
C34 C 1.1708(9) 0.8305(6) 1.2457(9)
C35 C 1.0844(10) 0.8043(6) 1.2579(9)
H39 H 1.0297 0.8287 1.2653
C36 C 1.0770(13) 0.7416(8) 1.2592(11)
H40 H 1.0152 0.7234 1.2637
C37 C 1.1604(13) 0.7045(7) 1.2540(11)
H41 H 1.1568 0.6618 1.2594
C38 C 1.2493(15) 0.7325(9) 1.2407(13)
H42 H 1.304 0.708 1.2335
C39 C 1.2578(11) 0.7926(8) 1.2379(10)
H43 H 1.3186 0.8107 1.231
C40 C 0.3184(9) 0.8606(6) 0.5690(9)
C41 C 0.3147(10) 0.8131(6) 0.5048(9)
H44 H 0.3167 0.8218 0.4409
C42 C 0.3079(11) 0.7514(7) 0.5326(11)
H45 H 0.3062 0.7197 0.4879
C43 C 0.3035(12) 0.7380(8) 0.6301(12)
H46 H 0.3 0.6973 0.6499
C44 C 0.3046(12) 0.7868(8) 0.6964(9)
H47 H 0.3012 0.7794 0.7602
C45 C 0.3106(11) 0.8439(7) 0.6639(10)
H48 H 0.3096 0.876 0.7074
C46 C 0.6851(8) 1.0848(6) 1.0894(8)
H49 H 0.6808 1.0405 1.0971
H50 H 0.7404 1.0927 1.0592
C47 C 0.7149(10) 1.1142(6) 1.1896(8)
H51 H 0.6565 1.1103 1.217
H52 H 0.7276 1.1579 1.183
C48 C 0.8137(9) 1.0850(7) 1.2613(8)
H53 H 0.7969 1.0429 1.2744
H54 H 0.8311 1.1073 1.3237
C49 C 0.9420(9) 1.1631(7) 1.1831(9)
C50 C 0.9407(10) 1.2125(7) 1.2464(9)
H55 H 0.9333 1.2057 1.3089
C51 C 0.9506(12) 1.2718(6) 1.2139(11)
H56 H 0.9493 1.3052 1.2547
C52 C 0.9621(11) 1.2814(9) 1.1247(12)
H57 H 0.9706 1.3215 1.105
C53 C 0.9617(12) 1.2352(10) 1.0639(12)
H58 H 0.9701 1.244 1.0023
C54 C 0.9485(11) 1.1699(7) 1.0893(10)
H59 H 0.9451 1.1372 1.0458
C55 C 0.0630(9) 1.1846(6) 0.5098(8)
C56 C 0.1553(10) 1.2115(6) 0.4934(9)
H60 H 0.2094 1.1864 0.4866
C57 C 0.1630(11) 1.2758(7) 0.4878(10)
H61 H 0.2218 1.2939 0.4765
C58 C 0.0810(14) 1.3122(7) 0.4994(11)
H62 H 0.0881 1.3549 0.4996
C59 C -0.0086(16) 1.2876(8) 0.5104(13)
H63 H -0.0649 1.3126 0.5124
C60 C -0.0140(12) 1.2215(7) 0.5189(10)
H64 H -0.0728 1.204 0.5311
S1 S 0.6990(2) 0.91673(17) 0.7407(2)
S2 S 0.8204(3) 0.93959(17) 1.0333(2)
S3 S 0.4275(2) 1.08729(17) 0.7153(2)
S4 S 0.5590(3) 1.11264(16) 1.0059(2)
S5 S 1.1941(2) 0.91267(17) 1.2434(2)
S6 S 0.3247(3) 0.93763(17) 0.5350(2)
S7 S 0.9296(2) 1.08353(17) 1.2193(2)
S8 S 0.0498(3) 1.10338(16) 0.5143(2)
Cu1 Cu 0.69118(12) 0.96210(7) 0.88852(11)
Cu2 Cu 0.56193(12) 1.06664(7) 0.85678(11)
Cu3 Cu 0.19094(11) 0.95863(7) 0.39221(11)
Cu4 Cu 0.05764(12) 1.06019(7) 0.36495(11)
Br1 Br 0.74156(10) 1.06917(5) 0.84597(10)
Br2 Br 0.51038(10) 0.95865(5) 0.89883(9)
Br3 Br 0.23854(10) 1.06738(5) 0.35448(9)
Br4 Br 0.01235(10) 0.95154(5) 0.40435(10)
S5_2 S 0.1941(2) 0.91267(17) 0.2434(2)
S7_2 S -0.0704(2) 1.08353(17) 0.2193(2)
Cu3_2 Cu 1.19094(11) 0.95863(7) 1.39221(11)
Cu4_2 Cu 1.05764(12) 1.06019(7) 1.36495(11)
C61 C 0.3801(6) 0.4925(4) 0.6521(5)
C62 C 0.4269(5) 0.5439(4) 0.6242(6)
H65 H 0.4934 0.5568 0.663
C63 C 0.3743(7) 0.5760(4) 0.5382(7)
H66 H 0.4056 0.6104 0.5195
C64 C 0.2748(7) 0.5567(5) 0.4801(6)
H67 H 0.2396 0.5782 0.4225
C65 C 0.2280(5) 0.5053(4) 0.5080(6)
H68 H 0.1615 0.4924 0.4692
C66 C 0.2806(6) 0.4732(4) 0.5941(6)
H69 H 0.2493 0.4388 0.6128
C67 C 0.8683(8) 0.5243(5) 1.1018(7)
C68 C 0.8124(9) 0.4747(5) 1.1198(8)
H70 H 0.7458 0.4642 1.0779
C69 C 0.8612(11) 0.4423(6) 1.2023(10)
H71 H 0.8235 0.4099 1.2184
C70 C 0.9568(10) 0.4523(6) 1.2623(9)
H72 H 0.9848 0.4266 1.3167
C71 C 1.0170(10) 0.5018(6) 1.2446(9)
H73 H 1.0847 0.5103 1.2862
C72 C 0.9684(9) 0.5382(6) 1.1593(9)
H74 H 1.0045 0.5713 1.1428
C73 C 0.559(2) 0.4750(13) 0.7948(19)
H75 H 0.5981 0.4368 0.8003
H76 H 0.5639 0.4939 0.7343
C74 C 0.6366(18) 0.5143(10) 0.8728(17)
H77 H 0.6228 0.5546 0.8415
H78 H 0.6008 0.5154 0.9232
C75 C 0.726(3) 0.5211(18) 0.925(3)
H79 H 0.7643 0.5059 0.8815
H80 H 0.7308 0.488 0.9725
S9 S 0.4418(5) 0.4498(2) 0.7581(3)
S10 S 0.8173(5) 0.5731(2) 0.9974(4)
C76? C 0.5275(14) 0.5023(8) 0.8511(14)
C77? C 0.6875(16) 0.5622(10) 0.9473(15)
H81? H 0.4939 0.5424 0.8365
H82? H 0.5185 0.4896 0.9139
H83? H 0.6493 0.5255 0.8109
H84? H 0.6736 0.4757 0.8946
H85? H 0.66 0.5559 1.0028
H86? H 0.6593 0.6014 0.9178
loop_
_geom_bond_atom_site_label_1
_geom_bond_atom_site_label_2
_geom_bond_site_symmetry_1
_geom_bond_site_symmetry_2
C1 H1 1_555 1_555
H2 C1 1_555 1_555
C2 C1 1_555 1_555
H3 C2 1_555 1_555
H4 C2 1_555 1_555
C3 C2 1_555 1_555
H5 C3 1_555 1_555
H6 C3 1_555 1_555
C4 C5 1_555 1_555
C5 H7 1_555 1_555
C6 C5 1_555 1_555
H8 C6 1_555 1_555
C7 C6 1_555 1_555
H9 C7 1_555 1_555
C8 C7 1_555 1_555
H10 C8 1_555 1_555
C9 C4 1_555 1_555
H11 C9 1_555 1_555
C10 C11 1_555 1_555
C11 H12 1_555 1_555
C12 C11 1_555 1_555
H13 C12 1_555 1_555
C13 C12 1_555 1_555
H14 C13 1_555 1_555
C14 C13 1_555 1_555
H15 C14 1_555 1_555
C15 C10 1_555 1_555
H16 C15 1_555 1_555
C16 H17 1_555 1_555
H18 C16 1_555 1_555
C17 C16 1_555 1_555
H19 C17 1_555 1_555
H20 C17 1_555 1_555
C18 C17 1_555 1_555
H21 C18 1_555 1_555
H22 C18 1_555 1_555
C19 C20 1_555 1_555
C20 H23 1_555 1_555
C21 C20 1_555 1_555
H24 C21 1_555 1_555
C22 C21 1_555 1_555
H25 C22 1_555 1_555
C23 C22 1_555 1_555
H26 C23 1_555 1_555
C24 C19 1_555 1_555
H27 C24 1_555 1_555
C25 C26 1_555 1_555
C26 H28 1_555 1_555
C27 C26 1_555 1_555
H29 C27 1_555 1_555
C28 C27 1_555 1_555
H30 C28 1_555 1_555
C29 C28 1_555 1_555
H31 C29 1_555 1_555
C30 C25 1_555 1_555
H32 C30 1_555 1_555
C31 H33 1_555 1_555
H34 C31 1_555 1_555
C32 C31 1_555 1_555
H35 C32 1_555 1_555
H36 C32 1_555 1_555
C33 C32 1_555 1_555
H37 C33 1_555 1_555
H38 C33 1_555 1_555
C34 C35 1_555 1_555
C35 H39 1_555 1_555
C36 C35 1_555 1_555
H40 C36 1_555 1_555
C37 C36 1_555 1_555
H41 C37 1_555 1_555
C38 C37 1_555 1_555
H42 C38 1_555 1_555
C39 C34 1_555 1_555
H43 C39 1_555 1_555
C40 C41 1_555 1_555
C41 H44 1_555 1_555
C42 C41 1_555 1_555
H45 C42 1_555 1_555
C43 C42 1_555 1_555
H46 C43 1_555 1_555
C44 C43 1_555 1_555
H47 C44 1_555 1_555
C45 C40 1_555 1_555
H48 C45 1_555 1_555
C46 H49 1_555 1_555
H50 C46 1_555 1_555
C47 C46 1_555 1_555
H51 C47 1_555 1_555
H52 C47 1_555 1_555
C48 C47 1_555 1_555
H53 C48 1_555 1_555
H54 C48 1_555 1_555
C49 C50 1_555 1_555
C50 H55 1_555 1_555
C51 C50 1_555 1_555
H56 C51 1_555 1_555
C52 C51 1_555 1_555
H57 C52 1_555 1_555
C53 C52 1_555 1_555
H58 C53 1_555 1_555
C54 C49 1_555 1_555
H59 C54 1_555 1_555
C55 C56 1_555 1_555
C56 H60 1_555 1_555
C57 C56 1_555 1_555
H61 C57 1_555 1_555
C58 C57 1_555 1_555
H62 C58 1_555 1_555
C59 C58 1_555 1_555
H63 C59 1_555 1_555
C60 C55 1_555 1_555
H64 C60 1_555 1_555
C61 C62 1_555 1_555
C62 H65 1_555 1_555
C63 C62 1_555 1_555
H66 C63 1_555 1_555
C64 C63 1_555 1_555
H67 C64 1_555 1_555
C65 C64 1_555 1_555
H68 C65 1_555 1_555
C66 C61 1_555 1_555
H69 C66 1_555 1_555
C67 C68 1_555 1_555
C68 H70 1_555 1_555
C69 C68 1_555 1_555
H71 C69 1_555 1_555
C70 C69 1_555 1_555
H72 C70 1_555 1_555
C71 C70 1_555 1_555
H73 C71 1_555 1_555
C72 C67 1_555 1_555
H74 C72 1_555 1_555
C73 H75 1_555 1_555
H76 C73 1_555 1_555
C74 C73 1_555 1_555
H77 C74 1_555 1_555
H78 C74 1_555 1_555
C75 C74 1_555 1_555
H79 C75 1_555 1_555
H80 C75 1_555 1_555
S1 C1 1_555 1_555
S2 C10 1_555 1_555
S3 C16 1_555 1_555
S4 C25 1_555 1_555
S5 C33 1_555 1_555
S6 C3 1_555 1_555
S7 C48 1_555 1_555
S8 C18 1_555 1_555
S9 C61 1_555 1_555
S10 C67 1_555 1_555
Cu1 S1 1_555 1_555
Cu2 S3 1_555 1_555
Cu3 S6 1_555 1_555
Cu4 S8 1_555 1_555
Br1 Cu1 1_555 1_555
Br2 Cu1 1_555 1_555
Br3 Cu3 1_555 1_555
Br4 Cu3 1_555 1_555
S5_2 Cu3 1_555 1_555
S7_2 Cu4 1_555 1_555
Cu3_2 S5 1_555 1_555
Cu4_2 S7 1_555 1_555
C4 S1 1_555 1_555
C8 C9 1_555 1_555
C14 C15 1_555 1_555
C19 S3 1_555 1_555
C23 C24 1_555 1_555
C29 C30 1_555 1_555
C31 S2 1_555 1_555
C34 S5 1_555 1_555
C38 C39 1_555 1_555
C40 S6 1_555 1_555
C44 C45 1_555 1_555
C46 S4 1_555 1_555
C49 S7 1_555 1_555
C53 C54 1_555 1_555
C55 S8 1_555 1_555
C59 C60 1_555 1_555
C65 C66 1_555 1_555
C71 C72 1_555 1_555
C73 S9 1_555 1_555
C75 S10 1_555 1_555
S2 Cu1 1_555 1_555
S4 Cu2 1_555 1_555
Cu1 Cu2 1_555 1_555
Cu2 Br1 1_555 1_555
Cu2 Br2 1_555 1_555
Cu3 Cu4 1_555 1_555
Cu4 Br3 1_555 1_555
Cu4 Br4 1_555 1_555
Cu3_2 Cu4_2 1_555 1_555

#END
