
#######################################################################
#
#                 Cambridge Crystallographic Data Centre
#                                CCDC 
#
#######################################################################
#
# If this CIF has been generated from an entry in the Cambridge 
# Structural Database, then it will include bibliographic, chemical, 
# crystal, experimental, refinement or atomic coordinate data resulting 
# from the CCDC's data processing and validation procedures.
#
#######################################################################

data_ZEJBOH
_symmetry_cell_setting           monoclinic
_symmetry_space_group_name_H-M   'P 21/n'
_symmetry_Int_Tables_number      14
_space_group_name_Hall           '-P 2yn'
loop_
_symmetry_equiv_pos_site_id
_symmetry_equiv_pos_as_xyz
1 x,y,z
2 1/2-x,1/2+y,1/2-z
3 -x,-y,-z
4 1/2+x,1/2-y,1/2+z
_cell_length_a                   7.9000(7)
_cell_length_b                   13.2679(12)
_cell_length_c                   16.3931(14)
_cell_angle_alpha                90
_cell_angle_beta                 98.8978(15)
_cell_angle_gamma                90
_cell_volume                     1697.59
loop_
_atom_site_label
_atom_site_type_symbol
_atom_site_fract_x
_atom_site_fract_y
_atom_site_fract_z
Cu1 Cu 0.11824(3) 0.37961(2) 0.525297(16)
Br1 Br 0.20471(3) 0.557130(17) 0.501914(14)
Br2 Br 0.04396(4) 0.202881(18) 0.542458(16)
O1 O 0.5596(2) 0.28177(12) 0.34002(11)
O2 O 0.5932(2) 0.10628(13) 0.34440(10)
N1 N 0.1986(2) 0.34322(14) 0.41914(11)
N2 N 0.3630(2) 0.32163(15) 0.42735(12)
N3 N 0.3923(2) 0.29449(14) 0.35247(12)
N4 N 0.6712(2) 0.09826(14) 0.27513(11)
N5 N 0.5801(2) 0.11506(14) 0.20171(11)
N6 N 0.6840(2) 0.10070(13) 0.14726(11)
C1 C 0.2530(3) 0.30377(16) 0.29284(14)
C2 C 0.1248(3) 0.33497(16) 0.33812(14)
C3 C -0.0417(3) 0.35325(17) 0.29840(15)
H1 H -0.1281 0.3736 0.3274
C4 C -0.0714(4) 0.33980(19) 0.21518(17)
H2 H -0.1810 0.3510 0.1867
C5 C 0.0606(4) 0.30898(19) 0.17017(17)
H3 H 0.0344 0.3014 0.1132
C6 C 0.2236(4) 0.29023(17) 0.20773(15)
H4 H 0.3094 0.2698 0.1784
C7 C 0.8456(3) 0.07564(16) 0.18825(14)
C8 C 0.8393(3) 0.07348(15) 0.27302(13)
C9 C 0.9800(3) 0.05329(18) 0.33276(16)
H5 H 0.9728 0.0501 0.3888
C10 C 1.1309(3) 0.03832(19) 0.30240(19)
H6 H 1.2303 0.0262 0.3395
C11 C 1.1409(3) 0.04064(17) 0.21745(18)
H7 H 1.2464 0.0296 0.2005
C12 C 1.0021(3) 0.05841(16) 0.15940(16)
H8 H 1.0098 0.0592 0.1034
C13 C 0.6368(3) 0.1998(2) 0.38499(15)
H9 H 0.6010 0.1986 0.4390
H10 H 0.7602 0.2082 0.3930
Cu1B Cu -0.11824(3) 0.62039(2) 0.474703(16)
Cu1C Cu 0.61824(3) 0.12039(2) 0.025297(16)
Br1B Br -0.20471(3) 0.442870(17) 0.498086(14)
N6C N 0.1840(2) 0.39930(13) 0.64726(11)
O3 O 0.6199(3) -0.05124(15) 0.49519(11)
H11 H 0.711(3) -0.085(2) 0.503(2)
H12 H 0.637(4) 0.0110(9) 0.507(2)
loop_
_geom_bond_atom_site_label_1
_geom_bond_atom_site_label_2
_geom_bond_site_symmetry_1
_geom_bond_site_symmetry_2
Cu1 Br1 1_555 1_555
Br1 Cu1B 1_555 1_555
Br2 Cu1 1_555 1_555
O1 N3 1_555 1_555
O2 N4 1_555 1_555
N1 Cu1 1_555 1_555
N2 N1 1_555 1_555
N3 N2 1_555 1_555
N4 N5 1_555 1_555
N5 N6 1_555 1_555
N6 C7 1_555 1_555
C1 N3 1_555 1_555
C2 N1 1_555 1_555
C3 C2 1_555 1_555
H1 C3 1_555 1_555
C4 C3 1_555 1_555
H2 C4 1_555 1_555
C5 C4 1_555 1_555
H3 C5 1_555 1_555
C6 C1 1_555 1_555
H4 C6 1_555 1_555
C7 C8 1_555 1_555
C8 N4 1_555 1_555
C9 C8 1_555 1_555
H5 C9 1_555 1_555
C10 C9 1_555 1_555
H6 C10 1_555 1_555
C11 C10 1_555 1_555
H7 C11 1_555 1_555
C12 C7 1_555 1_555
H8 C12 1_555 1_555
C13 O1 1_555 1_555
H9 C13 1_555 1_555
H10 C13 1_555 1_555
O3 H11 1_555 1_555
H12 O3 1_555 1_555
Cu1B Br1B 1_555 1_555
Cu1C N6 1_555 1_555
Br1B Cu1 1_555 1_555
N6C Cu1 1_555 1_555
O2 C13 1_555 1_555
C1 C2 1_555 1_555
C5 C6 1_555 1_555
C11 C12 1_555 1_555

#END
