
#######################################################################
#
#                 Cambridge Crystallographic Data Centre
#                                CCDC 
#
#######################################################################
#
# If this CIF has been generated from an entry in the Cambridge 
# Structural Database, then it will include bibliographic, chemical, 
# crystal, experimental, refinement or atomic coordinate data resulting 
# from the CCDC's data processing and validation procedures.
#
#######################################################################

data_ZEJCUO
_symmetry_cell_setting           monoclinic
_symmetry_space_group_name_H-M   'P 2'
_symmetry_Int_Tables_number      3
_space_group_name_Hall           'P 2y'
loop_
_symmetry_equiv_pos_site_id
_symmetry_equiv_pos_as_xyz
1 x,y,z
2 -x,y,-z
_cell_length_a                   11.621(10)
_cell_length_b                   4.968(5)
_cell_length_c                   19.669(13)
_cell_angle_alpha                90
_cell_angle_beta                 107.16(6)
_cell_angle_gamma                90
_cell_volume                     1085
loop_
_atom_site_label
_atom_site_type_symbol
_atom_site_fract_x
_atom_site_fract_y
_atom_site_fract_z
Mn1 Mn 0.3827(3) 0.274742 0.26878(10)
O1 O 0.4313(4) 0.5876(5) 0.3528(3)
H1 H 0.445271 0.741892 0.342737
H2 H 0.435316 0.549004 0.393998
Mn2 Mn 0.12153 0.279350 -0.256970
O2 O 0.0796(4) 0.5916(5) -0.3415(3)
H3 H 0.050570 0.547950 -0.383250
H4 H 0.093100 0.750550 -0.330900
P1 P 0.3268(4) 0.7118(7) 0.16375(14)
O3 O 0.2506(11) 0.568(3) 0.2010(7)
O4 O 0.4515(12) 0.565(3) 0.1930(6)
O5 O 0.3344(15) 1.0078(17) 0.1782(4)
P2 P 0.1678(5) 0.7167(8) -0.15535(14)
O6 O 0.2667(10) 0.571(2) -0.1847(6)
O7 O 0.0459(13) 0.570(3) -0.1903(7)
O8 O 0.1642(17) 1.0195(16) -0.1672(5)
S1 S 0.2557(5) 0.8857(4) 0.00319(15)
C1 C 0.2671(14) 0.653(3) 0.0697(7)
C2 C 0.2062(11) 0.6393(17) -0.0633(4)
C3 C 0.2389(5) 0.4018(10) 0.0403(4)
H5 H 0.238780 0.242740 0.067980
C4 C 0.2096(5) 0.4005(9) -0.0362(5)
H6 H 0.194120 0.239070 -0.064210
Mn3 Mn 0.121320 0.77605 0.242230
O9 O 0.0773(4) 1.0795(5) 0.1546(3)
H7 H 0.055030 1.029740 0.11297
H8 H 0.08333 1.240580 0.163970
Mn4 Mn 0.3814(2) 0.7741(6) -0.23400(13)
O10 O 0.4299(5) 1.0753(5) -0.1477(4)
H9 H 0.38594 1.205290 -0.148670
H10 H 0.491810 1.057170 -0.114640
P3 P 0.6733(5) 0.2155(11) 0.3374(2)
O11 O 0.7601(9) 0.072(2) 0.3008(6)
O12 O 0.5494(12) 0.068(4) 0.3137(8)
O13 O 0.6661(17) 0.516(2) 0.3254(6)
P4 P 0.8325(4) 0.2131(8) 0.6575(2)
O14 O 0.7417(11) 0.077(3) 0.6854(8)
O15 O 0.9548(11) 0.080(3) 0.6967(6)
O16 O 0.8333(15) 0.513(2) 0.6686(6)
S2 S 0.6723(2) 0.1933(6) 0.4972(3)
C5 C 0.8122(10) 0.167(3) 0.5643(6)
C6 C 0.7337(10) 0.153(2) 0.4315(6)
C7 C 0.8671(6) 0.1393(8) 0.4619(5)
H11 H 0.923837 0.152338 0.435104
C8 C 0.8971(7) 0.1039(8) 0.5370(5)
H12 H 0.974133 0.03829 0.565087
Mn1_2 Mn 0.3827(3) 1.274742 0.26878(10)
Mn1A Mn 0.6173(3) 0.274742 0.73122(10)
Mn2_2 Mn 0.12153 1.279350 -0.256970
Mn2A Mn 0.87847 0.279350 0.256970
Mn2_3 Mn 1.12153 0.279350 0.743030
O4A O 0.5485(12) 0.565(3) -0.1930(6)
O5_2 O 0.3344(15) 0.0078(17) 0.1782(4)
O7A O -0.0459(13) 0.570(3) 0.1903(7)
O8_2 O 0.1642(17) 0.0195(16) -0.1672(5)
Mn3A Mn -0.121320 0.77605 -0.242230
Mn3A_2 Mn 0.878680 -0.22395 0.757770
Mn3A_3 Mn 0.878680 0.77605 0.757770
Mn4A Mn 0.6186(2) 0.7741(6) 0.23400(13)
Mn4A_2 Mn 0.6186(2) -0.2259(6) 0.23400(13)
O11A O 0.2399(9) 0.072(2) -0.3008(6)
O11A_2 O 0.2399(9) 1.072(2) -0.3008(6)
O12A O 0.4506(12) 1.068(4) -0.3137(8)
O13A O 0.3339(17) 0.516(2) -0.3254(6)
O14A O 0.2583(11) 0.077(3) 0.3146(8)
O14A_2 O 0.2583(11) 1.077(3) 0.3146(8)
O15_2 O -0.0452(11) 0.080(3) -0.3033(6)
O15A O 0.0452(11) 1.080(3) 0.3033(6)
O16A O 0.1667(15) 0.513(2) 0.3314(6)
loop_
_geom_bond_atom_site_label_1
_geom_bond_atom_site_label_2
_geom_bond_site_symmetry_1
_geom_bond_site_symmetry_2
Mn1 O1 1_555 1_555
O1 H1 1_555 1_555
H2 O1 1_555 1_555
Mn2 O2 1_555 1_555
O2 H3 1_555 1_555
H4 O2 1_555 1_555
P1 O3 1_555 1_555
O3 Mn1 1_555 1_555
O4 Mn1 1_555 1_555
O5 P1 1_555 1_555
P2 O6 1_555 1_555
O6 Mn2 1_555 1_555
O7 Mn2 1_555 1_555
O8 P2 1_555 1_555
S1 C1 1_555 1_555
C1 P1 1_555 1_555
C2 P2 1_555 1_555
C3 C1 1_555 1_555
H5 C3 1_555 1_555
C4 C2 1_555 1_555
H6 C4 1_555 1_555
Mn3 O3 1_555 1_555
O9 Mn3 1_555 1_555
H7 O9 1_555 1_555
H8 O9 1_555 1_555
Mn4 O6 1_555 1_555
O10 Mn4 1_555 1_555
H9 O10 1_555 1_555
H10 O10 1_555 1_555
P3 O11 1_555 1_555
O11 Mn2A 1_555 1_555
O12 Mn1 1_555 1_555
O13 P3 1_555 1_555
P4 O14 1_555 1_555
O14 Mn1A 1_555 1_555
O15 P4 1_555 1_555
O16 P4 1_555 1_555
S2 C5 1_555 1_555
C5 P4 1_555 1_555
C6 P3 1_555 1_555
C7 C6 1_555 1_555
H11 C7 1_555 1_555
C8 C5 1_555 1_555
H12 C8 1_555 1_555
Mn1_2 O5 1_555 1_555
Mn2_2 O8 1_555 1_555
Mn2_3 O15 1_555 1_555
O4A Mn4 1_555 1_555
O5_2 Mn1 1_555 1_555
O7A Mn3 1_555 1_555
O8_2 Mn2 1_555 1_555
Mn3A O7 1_555 1_555
Mn3A_2 O14 1_555 1_555
Mn3A_3 O16 1_555 1_555
Mn4A O4 1_555 1_555
Mn4A_2 O11 1_555 1_555
O11A Mn2 1_555 1_555
O11A_2 Mn4 1_555 1_555
O12A Mn4 1_555 1_555
O13A Mn4 1_555 1_555
O14A Mn1 1_555 1_555
O14A_2 Mn3 1_555 1_555
O15_2 Mn2 1_555 1_555
O15A Mn3 1_555 1_555
O16A Mn3 1_555 1_555
P1 O4 1_555 1_555
P2 O7 1_555 1_555
S1 C2 1_555 1_555
C3 C4 1_555 1_555
P3 O12 1_555 1_555
O12 Mn4A_2 1_555 1_555
O13 Mn4A 1_555 1_555
O15 Mn3A_2 1_555 1_555
S2 C6 1_555 1_555
C7 C8 1_555 1_555
Mn1_2 O14A_2 1_555 1_555
Mn2_2 O11A_2 1_555 1_555

#END
