
#######################################################################
#
#                 Cambridge Crystallographic Data Centre
#                                CCDC 
#
#######################################################################
#
# If this CIF has been generated from an entry in the Cambridge 
# Structural Database, then it will include bibliographic, chemical, 
# crystal, experimental, refinement or atomic coordinate data resulting 
# from the CCDC's data processing and validation procedures.
#
#######################################################################

data_ZEKKOR
_symmetry_cell_setting           monoclinic
_symmetry_space_group_name_H-M   'P 21/c'
_symmetry_Int_Tables_number      14
_space_group_name_Hall           '-P 2ybc'
loop_
_symmetry_equiv_pos_site_id
_symmetry_equiv_pos_as_xyz
1 x,y,z
2 -x,1/2+y,1/2-z
3 -x,-y,-z
4 x,1/2-y,1/2+z
_cell_length_a                   10.814(3)
_cell_length_b                   6.6286(17)
_cell_length_c                   6.7946(17)
_cell_angle_alpha                90
_cell_angle_beta                 106.293(2)
_cell_angle_gamma                90
_cell_volume                     467.488
loop_
_atom_site_label
_atom_site_type_symbol
_atom_site_fract_x
_atom_site_fract_y
_atom_site_fract_z
Ba1 Ba 0.88295(2) 0.02677(4) 0.21300(3)
S1 S 0.70282(11) -0.02425(14) 0.65922(16)
F1 F 1.0156(2) 0.2289(3) 0.0036(3)
O1 O 0.8108(3) 0.0420(4) 0.5814(5)
O2 O 0.7010(3) -0.2403(4) 0.6920(4)
O3 O 0.7002(3) 0.0941(5) 0.8393(4)
C1 C 0.5576(4) 0.0329(5) 0.4675(6)
H1 H 0.5529 0.1770 0.4420
H2 H 0.5575 -0.0348 0.3409
Ba1A Ba 1.11705(2) -0.47323(4) 0.28700(3)
Ba1A_2 Ba 1.11705(2) 0.52677(4) 0.28700(3)
Ba1B Ba 1.11705(2) -0.02677(4) -0.21300(3)
Ba1C Ba 0.88295(2) 0.47323(4) -0.28700(3)
Ba1C_2 Ba 0.88295(2) 0.47323(4) 0.71300(3)
Ba1C_3 Ba 0.88295(2) -0.52677(4) 0.71300(3)
Ba1_2 Ba 0.88295(2) 0.02677(4) 1.21300(3)
Ba1B_2 Ba 0.11705(2) -0.02677(4) 0.78700(3)
Ba1A_3 Ba 0.11705(2) -0.47323(4) 0.28700(3)
Ba1A_4 Ba 0.11705(2) 0.52677(4) 0.28700(3)
Ba1B_3 Ba 0.11705(2) -0.02677(4) -0.21300(3)
Ba1B_4 Ba 1.11705(2) -0.02677(4) 0.78700(3)
S1B S 0.29718(11) 0.02425(14) 0.34078(16)
F1A F 0.9844(2) -0.2711(3) 0.4964(3)
F1B F 0.9844(2) -0.2289(3) -0.0036(3)
F1C F 1.0156(2) 0.2711(3) 0.5036(3)
F1_2 F 1.0156(2) -0.7711(3) 0.0036(3)
F1C_2 F 1.0156(2) -0.7289(3) 0.5036(3)
O1B O 0.1892(3) -0.0420(4) 0.4186(5)
O1C O 0.8108(3) 0.4580(4) 0.0814(5)
O1A O 1.1892(3) -0.4580(4) -0.0814(5)
O1B_2 O 1.1892(3) -0.0420(4) 0.4186(5)
O2B O 0.2990(3) 0.2403(4) 0.3080(4)
O2C O 0.7010(3) -0.2597(4) 0.1920(4)
O2B_2 O 1.2990(3) -0.7597(4) 0.3080(4)
O3B O 0.2998(3) -0.0941(5) 0.1607(4)
O3_2 O 0.7002(3) 0.0941(5) -0.1607(4)
O3A O 1.2998(3) -0.4059(5) 0.6607(4)
C1B C 0.4424(4) -0.0329(5) 0.5325(6)
H1B H 0.4471 -0.1770 0.5580
H2B H 0.4425 0.0348 0.6591
loop_
_geom_bond_atom_site_label_1
_geom_bond_atom_site_label_2
_geom_bond_site_symmetry_1
_geom_bond_site_symmetry_2
Ba1 F1 1_555 1_555
S1 O1 1_555 1_555
F1 Ba1A_2 1_555 1_555
O1 Ba1 1_555 1_555
O2 S1 1_555 1_555
O3 S1 1_555 1_555
C1 S1 1_555 1_555
H1 C1 1_555 1_555
H2 C1 1_555 1_555
Ba1A F1A 1_555 1_555
Ba1A_2 F1C 1_555 1_555
Ba1B F1 1_555 1_555
Ba1C F1 1_555 1_555
Ba1C_2 O1 1_555 1_555
Ba1C_3 O2 1_555 1_555
Ba1_2 O3 1_555 1_555
Ba1B_2 O1B 1_555 1_555
Ba1A_3 O1B 1_555 1_555
Ba1A_4 O2B 1_555 1_555
Ba1B_3 O3B 1_555 1_555
Ba1B_4 F1A 1_555 1_555
S1B O1B 1_555 1_555
F1A Ba1 1_555 1_555
F1B Ba1 1_555 1_555
F1C Ba1 1_555 1_555
F1_2 Ba1A 1_555 1_555
F1C_2 Ba1A 1_555 1_555
O1C Ba1 1_555 1_555
O1A Ba1A 1_555 1_555
O1B_2 Ba1A 1_555 1_555
O2B S1B 1_555 1_555
O2C Ba1 1_555 1_555
O2B_2 Ba1A 1_555 1_555
O3B S1B 1_555 1_555
O3_2 Ba1 1_555 1_555
O3A Ba1A 1_555 1_555
C1B C1 1_555 1_555
H1B C1B 1_555 1_555
H2B C1B 1_555 1_555
Ba1A F1B 1_555 1_555
Ba1B F1B 1_555 1_555
Ba1B O1A 1_555 1_555
Ba1C O1C 1_555 1_555
Ba1C_2 F1C 1_555 1_555
Ba1C_3 F1A 1_555 1_555
Ba1C_3 F1C_2 1_555 1_555
Ba1B_4 F1C 1_555 1_555
Ba1B_4 O1B_2 1_555 1_555
S1B C1B 1_555 1_555

#END
