
#######################################################################
#
#                 Cambridge Crystallographic Data Centre
#                                CCDC 
#
#######################################################################
#
# If this CIF has been generated from an entry in the Cambridge 
# Structural Database, then it will include bibliographic, chemical, 
# crystal, experimental, refinement or atomic coordinate data resulting 
# from the CCDC's data processing and validation procedures.
#
#######################################################################

data_ZEMPIQ
_symmetry_cell_setting           tetragonal
_symmetry_space_group_name_H-M   'I 4'
_symmetry_Int_Tables_number      79
_space_group_name_Hall           'I 4'
loop_
_symmetry_equiv_pos_site_id
_symmetry_equiv_pos_as_xyz
1 x,y,z
2 -y,x,z
3 -x,-y,z
4 y,-x,z
5 1/2+x,1/2+y,1/2+z
6 1/2-y,1/2+x,1/2+z
7 1/2-x,1/2-y,1/2+z
8 1/2+y,1/2-x,1/2+z
_cell_length_a                   15.955(3)
_cell_length_b                   15.955(3)
_cell_length_c                   12.092(4)
_cell_angle_alpha                90
_cell_angle_beta                 90
_cell_angle_gamma                90
_cell_volume                     3078.16
loop_
_atom_site_label
_atom_site_type_symbol
_atom_site_fract_x
_atom_site_fract_y
_atom_site_fract_z
Au1 Au 0.50000 0.00000 0.23790
Au2 Au 0.50000 0.00000 -0.01709(28)
S1 S 0.4302(17) 0.1290(16) 0.2575(20)
S2 S 0.4346(14) 0.1265(14) -0.0269(13)
P1 P 0.36601(48) 0.12901(49) 0.1023(19)
C1 C 0.29264(95) 0.04656(96) 0.0961(28)
C2 C 0.2611(16) 0.0102(16) 0.1924(21)
C3 C 0.1959(16) -0.0478(16) 0.1862(19)
C4 C 0.16219(91) -0.06951(96) 0.0837(22)
C5 C 0.1937(15) -0.0332(16) -0.0127(18)
C6 C 0.2590(15) 0.0249(15) -0.0065(22)
C7 C 0.3065(12) 0.2245(11) 0.1157(28)
C8 C 0.2618(15) 0.2478(14) 0.0214(22)
C9 C 0.2132(13) 0.3205(15) 0.0222(23)
C10 C 0.2094(12) 0.36992(97) 0.1173(29)
C11 C 0.2541(15) 0.3466(15) 0.2115(23)
C12 C 0.3027(13) 0.2739(16) 0.2107(22)
H1 H 0.2840(25) 0.0250(25) 0.2623(25)
H2 H 0.1744(25) -0.0725(24) 0.2518(21)
H3 H 0.1178(12) -0.1090(13) 0.0794(30)
H4 H 0.1708(24) -0.0480(25) -0.0825(20)
H5 H 0.2804(24) 0.0496(24) -0.0721(27)
H6 H 0.2644(22) 0.2142(21) -0.0433(26)
H7 H 0.1827(19) 0.3364(23) -0.0419(27)
H8 H 0.1763(17) 0.4194(12) 0.1178(40)
H9 H 0.2515(22) 0.3803(22) 0.2763(27)
H10 H 0.3331(18) 0.2581(24) 0.2749(26)
S1B S 0.5698(17) -0.1290(16) 0.2575(20)
S2B S 0.5654(14) -0.1265(14) -0.0269(13)
P1B P 0.63399(48) -0.12901(49) 0.1023(19)
C1B C 0.70736(95) -0.04656(96) 0.0961(28)
C2B C 0.7389(16) -0.0102(16) 0.1924(21)
C3B C 0.8041(16) 0.0478(16) 0.1862(19)
C4B C 0.83781(91) 0.06951(96) 0.0837(22)
C5B C 0.8063(15) 0.0332(16) -0.0127(18)
C6B C 0.7410(15) -0.0249(15) -0.0065(22)
C7B C 0.6935(12) -0.2245(11) 0.1157(28)
C8B C 0.7382(15) -0.2478(14) 0.0214(22)
C9B C 0.7868(13) -0.3205(15) 0.0222(23)
C10B C 0.7906(12) -0.36992(97) 0.1173(29)
C11B C 0.7459(15) -0.3466(15) 0.2115(23)
C12B C 0.6973(13) -0.2739(16) 0.2107(22)
H1B H 0.7160(25) -0.0250(25) 0.2623(25)
H2B H 0.8256(25) 0.0725(24) 0.2518(21)
H3B H 0.8822(12) 0.1090(13) 0.0794(30)
H4B H 0.8292(24) 0.0480(25) -0.0825(20)
H5B H 0.7196(24) -0.0496(24) -0.0721(27)
H6B H 0.7356(22) -0.2142(21) -0.0433(26)
H7B H 0.8173(19) -0.3364(23) -0.0419(27)
H8B H 0.8237(17) -0.4194(12) 0.1178(40)
H9B H 0.7485(22) -0.3803(22) 0.2763(27)
H10B H 0.6669(18) -0.2581(24) 0.2749(26)
Au2E Au 0.50000 0.00000 0.48291(28)
Au1E Au 0.50000 0.00000 -0.26210
loop_
_geom_bond_atom_site_label_1
_geom_bond_atom_site_label_2
_geom_bond_site_symmetry_1
_geom_bond_site_symmetry_2
Au1 Au2 1_555 1_555
Au2 S2 1_555 1_555
S1 Au1 1_555 1_555
S2 P1 1_555 1_555
P1 S1 1_555 1_555
C1 P1 1_555 1_555
C2 C1 1_555 1_555
C3 C2 1_555 1_555
C4 C3 1_555 1_555
C5 C4 1_555 1_555
C6 C1 1_555 1_555
C7 P1 1_555 1_555
C8 C7 1_555 1_555
C9 C8 1_555 1_555
C10 C9 1_555 1_555
C11 C10 1_555 1_555
C12 C7 1_555 1_555
H1 C2 1_555 1_555
H2 C3 1_555 1_555
H3 C4 1_555 1_555
H4 C5 1_555 1_555
H5 C6 1_555 1_555
H6 C8 1_555 1_555
H7 C9 1_555 1_555
H8 C10 1_555 1_555
H9 C11 1_555 1_555
H10 C12 1_555 1_555
S1B Au1 1_555 1_555
S2B Au2 1_555 1_555
P1B S1B 1_555 1_555
C1B P1B 1_555 1_555
C2B C1B 1_555 1_555
C3B C2B 1_555 1_555
C4B C3B 1_555 1_555
C5B C4B 1_555 1_555
C6B C1B 1_555 1_555
C7B P1B 1_555 1_555
C8B C7B 1_555 1_555
C9B C8B 1_555 1_555
C10B C9B 1_555 1_555
C11B C10B 1_555 1_555
C12B C7B 1_555 1_555
H1B C2B 1_555 1_555
H2B C3B 1_555 1_555
H3B C4B 1_555 1_555
H4B C5B 1_555 1_555
H5B C6B 1_555 1_555
H6B C8B 1_555 1_555
H7B C9B 1_555 1_555
H8B C10B 1_555 1_555
H9B C11B 1_555 1_555
H10B C12B 1_555 1_555
Au2E Au1 1_555 1_555
Au1E Au2 1_555 1_555
C5 C6 1_555 1_555
C11 C12 1_555 1_555
S2B P1B 1_555 1_555
C5B C6B 1_555 1_555
C11B C12B 1_555 1_555

#END
