
#######################################################################
#
#                 Cambridge Crystallographic Data Centre
#                                CCDC 
#
#######################################################################
#
# If this CIF has been generated from an entry in the Cambridge 
# Structural Database, then it will include bibliographic, chemical, 
# crystal, experimental, refinement or atomic coordinate data resulting 
# from the CCDC's data processing and validation procedures.
#
#######################################################################

data_ZEMPIQ01
_symmetry_cell_setting           tetragonal
_symmetry_space_group_name_H-M   'I 4/m'
_symmetry_Int_Tables_number      87
_space_group_name_Hall           '-I 4'
loop_
_symmetry_equiv_pos_site_id
_symmetry_equiv_pos_as_xyz
1 x,y,z
2 -y,x,z
3 y,-x,z
4 1/2+x,1/2+y,1/2+z
5 1/2-y,1/2+x,1/2+z
6 1/2+y,1/2-x,1/2+z
7 x,y,-z
8 1/2+x,1/2+y,1/2-z
9 -x,-y,-z
10 y,-x,-z
11 -y,x,-z
12 1/2-x,1/2-y,1/2-z
13 1/2+y,1/2-x,1/2-z
14 1/2-y,1/2+x,1/2-z
15 -x,-y,z
16 1/2-x,1/2-y,1/2+z
_cell_length_a                   15.8963(4)
_cell_length_b                   15.8963(4)
_cell_length_c                   12.0938(4)
_cell_angle_alpha                90
_cell_angle_beta                 90
_cell_angle_gamma                90
_cell_volume                     3056.01
loop_
_atom_site_label
_atom_site_type_symbol
_atom_site_fract_x
_atom_site_fract_y
_atom_site_fract_z
Au1 Au 0.0000 0.5000 0.127583(13)
S1 S -0.06745(7) 0.62833(6) 0.14210(7)
P1 P -0.13500(8) 0.62930(8) 0.0000
C1 C -0.1960(3) 0.7254(3) 0.0000
C2 C -0.2242(4) 0.7602(3) 0.0969(5)
H1 H -0.2088 0.7361 0.1649
C3 C -0.2758(5) 0.8310(4) 0.0948(5)
H2 H -0.2943 0.8542 0.1620
C4 C -0.2996(5) 0.8667(5) 0.0000
H3 H -0.3324 0.9159 0.0000
C5 C -0.2122(3) 0.5450(3) 0.0000
C6 C -0.2442(3) 0.5148(3) 0.0983(4)
H4 H -0.2220 0.5338 0.1659
C7 C -0.3088(4) 0.4565(4) 0.0979(6)
H5 H -0.3304 0.4358 0.1649
C8 C -0.3410(5) 0.4292(5) 0.0000
H6 H -0.3861 0.3910 0.0000
Au1F Au 0.0000 0.5000 -0.127583(13)
Au1E Au 0.0000 0.5000 -0.372417(13)
S1F S -0.06745(7) 0.62833(6) -0.14210(7)
Au1L Au 0.0000 0.5000 0.372417(13)
S1N S 0.06745(7) 0.37167(6) 0.14210(7)
P1N P 0.13500(8) 0.37070(8) 0.0000
S1H S 0.06745(7) 0.37167(6) -0.14210(7)
C1N C 0.1960(3) 0.2746(3) 0.0000
C2N C 0.2242(4) 0.2398(3) 0.0969(5)
H1N H 0.2088 0.2639 0.1649
C3N C 0.2758(5) 0.1690(4) 0.0948(5)
H2N H 0.2943 0.1458 0.1620
C4N C 0.2996(5) 0.1333(5) 0.0000
C3H C 0.2758(5) 0.1690(4) -0.0948(5)
C2H C 0.2242(4) 0.2398(3) -0.0969(5)
H1H H 0.2088 0.2639 -0.1649
H2H H 0.2943 0.1458 -0.1620
H3N H 0.3324 0.0841 0.0000
C5N C 0.2122(3) 0.4550(3) 0.0000
C6N C 0.2442(3) 0.4852(3) 0.0983(4)
H4N H 0.2220 0.4662 0.1659
C7N C 0.3088(4) 0.5435(4) 0.0979(6)
H5N H 0.3304 0.5642 0.1649
C8N C 0.3410(5) 0.5708(5) 0.0000
C7H C 0.3088(4) 0.5435(4) -0.0979(6)
C6H C 0.2442(3) 0.4852(3) -0.0983(4)
H4H H 0.2220 0.4662 -0.1659
H5H H 0.3304 0.5642 -0.1649
H6N H 0.3861 0.6090 0.0000
C3F C -0.2758(5) 0.8310(4) -0.0948(5)
C2F C -0.2242(4) 0.7602(3) -0.0969(5)
H1F H -0.2088 0.7361 -0.1649
H2F H -0.2943 0.8542 -0.1620
C7F C -0.3088(4) 0.4565(4) -0.0979(6)
C6F C -0.2442(3) 0.5148(3) -0.0983(4)
H4F H -0.2220 0.5338 -0.1659
H5F H -0.3304 0.4358 -0.1649
loop_
_geom_bond_atom_site_label_1
_geom_bond_atom_site_label_2
_geom_bond_site_symmetry_1
_geom_bond_site_symmetry_2
Au1 S1 1_555 1_555
S1 P1 1_555 1_555
P1 C1 1_555 1_555
C1 C2 1_555 1_555
C2 H1 1_555 1_555
C3 C2 1_555 1_555
H2 C3 1_555 1_555
C4 C3 1_555 1_555
H3 C4 1_555 1_555
C5 P1 1_555 1_555
C6 C5 1_555 1_555
H4 C6 1_555 1_555
C7 C6 1_555 1_555
H5 C7 1_555 1_555
C8 C7 1_555 1_555
H6 C8 1_555 1_555
Au1F Au1 1_555 1_555
Au1E Au1F 1_555 1_555
S1F P1 1_555 1_555
Au1L Au1 1_555 1_555
S1N Au1 1_555 1_555
P1N S1N 1_555 1_555
S1H Au1F 1_555 1_555
C1N P1N 1_555 1_555
C2N C1N 1_555 1_555
H1N C2N 1_555 1_555
C3N C2N 1_555 1_555
H2N C3N 1_555 1_555
C4N C3N 1_555 1_555
C3H C4N 1_555 1_555
C2H C1N 1_555 1_555
H1H C2H 1_555 1_555
H2H C3H 1_555 1_555
H3N C4N 1_555 1_555
C5N P1N 1_555 1_555
C6N C5N 1_555 1_555
H4N C6N 1_555 1_555
C7N C6N 1_555 1_555
H5N C7N 1_555 1_555
C8N C7N 1_555 1_555
C7H C8N 1_555 1_555
C6H C5N 1_555 1_555
H4H C6H 1_555 1_555
H5H C7H 1_555 1_555
H6N C8N 1_555 1_555
C3F C4 1_555 1_555
C2F C1 1_555 1_555
H1F C2F 1_555 1_555
H2F C3F 1_555 1_555
C7F C8 1_555 1_555
C6F C5 1_555 1_555
H4F C6F 1_555 1_555
H5F C7F 1_555 1_555
Au1F S1F 1_555 1_555
P1N S1H 1_555 1_555
C3H C2H 1_555 1_555
C7H C6H 1_555 1_555
C3F C2F 1_555 1_555
C7F C6F 1_555 1_555

#END
