
#######################################################################
#
#                 Cambridge Crystallographic Data Centre
#                                CCDC 
#
#######################################################################
#
# If this CIF has been generated from an entry in the Cambridge 
# Structural Database, then it will include bibliographic, chemical, 
# crystal, experimental, refinement or atomic coordinate data resulting 
# from the CCDC's data processing and validation procedures.
#
#######################################################################

data_ZEQHEK
_symmetry_cell_setting           monoclinic
_symmetry_space_group_name_H-M   'P 21/n'
_symmetry_Int_Tables_number      14
_space_group_name_Hall           '-P 2yn'
loop_
_symmetry_equiv_pos_site_id
_symmetry_equiv_pos_as_xyz
1 x,y,z
2 1/2-x,1/2+y,1/2-z
3 -x,-y,-z
4 1/2+x,1/2-y,1/2+z
_cell_length_a                   11.138(1)
_cell_length_b                   15.2889(9)
_cell_length_c                   16.4402(13)
_cell_angle_alpha                90
_cell_angle_beta                 101.171(7)
_cell_angle_gamma                90
_cell_volume                     2746.52
loop_
_atom_site_label
_atom_site_type_symbol
_atom_site_fract_x
_atom_site_fract_y
_atom_site_fract_z
C1 C 0.2335(15) 0.1660(13) -0.0936(12)
H1 H 0.2903 0.1222 -0.0755
C2 C 0.1304(18) 0.1465(14) -0.1546(13)
H2 H 0.1207 0.0907 -0.1774
C3 C 0.0477(18) 0.2068(19) -0.1795(12)
H3 H -0.0198 0.1933 -0.2204
C4 C 0.0588(13) 0.2900(15) -0.1461(10)
C5 C -0.0294(15) 0.3584(15) -0.1640(13)
H4 H -0.1019 0.3488 -0.2018
C6 C -0.0079(19) 0.4392(15) -0.1254(14)
H5 H -0.0653 0.4838 -0.1381
C7 C 0.0996(15) 0.4536(13) -0.0677(15)
H6 H 0.1097 0.5071 -0.0403
C8 C 0.1909(12) 0.3931(10) -0.0495(9)
C9 C 0.1669(12) 0.3088(10) -0.0881(9)
C10 C 0.5499(12) 0.1874(9) -0.0377(8)
C11 C 0.6189(11) 0.1473(9) -0.0975(9)
C12 C 0.6578(12) 0.1912(9) -0.1567(8)
H7 H 0.6437 0.2511 -0.1610
C13 C 0.6378(15) 0.0553(10) -0.0905(10)
H8 H 0.6102 0.0235 -0.0495
C14 C 0.105(2) 0.2451(15) 0.0874(13)
H9 H 0.0943 0.3054 0.0861
C15 C -0.099(3) 0.232(3) 0.0108(16)
H10 H -0.1099 0.2109 -0.0451
H11 H -0.0913 0.2944 0.0112
H12 H -0.1687 0.2157 0.0340
C16 C 0.013(5) 0.099(2) 0.053(4)
H13 H -0.0266 0.0739 0.0945
H14 H 0.0969 0.0813 0.0627
H15 H -0.0278 0.0805 -0.0008
C17 C 0.6221(16) 0.6311(12) 0.2332(13)
H16 H 0.5639 0.6743 0.2350
C18 C 0.7328(18) 0.6390(13) 0.2872(16)
H17 H 0.7516 0.6889 0.3195
C19 C 0.8164(18) 0.5694(14) 0.2920(14)
H18 H 0.8903 0.5711 0.3297
C20 C 0.7873(12) 0.4994(8) 0.2404(8)
C21 C 0.8688(14) 0.4267(11) 0.2388(10)
H19 H 0.9437 0.4243 0.2754
C22 C 0.8342(15) 0.3611(10) 0.1824(12)
H20 H 0.8863 0.3136 0.1818
C23 C 0.7228(14) 0.3630(9) 0.1255(10)
H21 H 0.7041 0.3180 0.0872
C24 C 0.6403(10) 0.4305(7) 0.1253(7)
C25 C 0.6724(10) 0.5011(7) 0.1829(7)
C26 C 0.8095(12) 0.0170(9) -0.2664(9)
C27 C 0.7429(12) 0.0640(9) -0.2075(9)
C28 C 0.7002(13) 0.0127(10) -0.1481(9)
H22 H 0.7121 -0.0476 -0.1461
C29 C 0.7209(10) 0.1497(9) -0.2147(9)
H23 H 0.7460 0.1819 -0.2564
N1 N 0.2522(11) 0.2450(10) -0.0610(9)
N2 N 0.0067(13) 0.1950(11) 0.0582(11)
N3 N 0.5921(10) 0.5677(8) 0.1793(7)
O1 O 0.2957(10) 0.4067(7) 0.0021(7)
O2 O 0.5340(10) 0.2686(7) -0.0442(7)
O3 O 0.5101(12) 0.1438(8) 0.0139(8)
O4 O 0.2030(16) 0.2188(11) 0.1140(9)
O5 O 0.5351(8) 0.4336(6) 0.0700(5)
O6 O 0.8564(12) 0.0646(8) -0.3182(8)
O7 O 0.8143(11) -0.0655(7) -0.2684(8)
Pb1 Pb 0.40759(4) 0.28994(3) 0.06176(3)
Pb2 Pb 0.39387(4) 0.54243(3) 0.08314(3)
O5B O 0.4649(8) 0.5664(6) -0.0700(5)
O6C O 0.3564(12) 0.4354(8) 0.1818(8)
O7C O 0.3143(11) 0.5655(7) 0.2316(8)
Pb2B Pb 0.60613(4) 0.45757(3) -0.08314(3)
Pb2C Pb 0.89387(4) -0.04243(3) -0.41686(3)
loop_
_geom_bond_atom_site_label_1
_geom_bond_atom_site_label_2
_geom_bond_site_symmetry_1
_geom_bond_site_symmetry_2
C1 H1 1_555 1_555
C2 C1 1_555 1_555
H2 C2 1_555 1_555
C3 C2 1_555 1_555
H3 C3 1_555 1_555
C4 C3 1_555 1_555
C5 C4 1_555 1_555
H4 C5 1_555 1_555
C6 C5 1_555 1_555
H5 C6 1_555 1_555
C7 C6 1_555 1_555
H6 C7 1_555 1_555
C8 C7 1_555 1_555
C9 C4 1_555 1_555
C10 C11 1_555 1_555
C11 C12 1_555 1_555
C12 H7 1_555 1_555
C13 C11 1_555 1_555
H8 C13 1_555 1_555
C14 H9 1_555 1_555
C15 H10 1_555 1_555
H11 C15 1_555 1_555
H12 C15 1_555 1_555
C16 H13 1_555 1_555
H14 C16 1_555 1_555
H15 C16 1_555 1_555
C17 H16 1_555 1_555
C18 C17 1_555 1_555
H17 C18 1_555 1_555
C19 C18 1_555 1_555
H18 C19 1_555 1_555
C20 C19 1_555 1_555
C21 C20 1_555 1_555
H19 C21 1_555 1_555
C22 C21 1_555 1_555
H20 C22 1_555 1_555
C23 C22 1_555 1_555
H21 C23 1_555 1_555
C24 C23 1_555 1_555
C25 C20 1_555 1_555
C26 C27 1_555 1_555
C27 C28 1_555 1_555
C28 C13 1_555 1_555
H22 C28 1_555 1_555
C29 C12 1_555 1_555
H23 C29 1_555 1_555
N1 C1 1_555 1_555
N2 C14 1_555 1_555
N3 C17 1_555 1_555
O1 C8 1_555 1_555
O2 C10 1_555 1_555
O3 C10 1_555 1_555
O4 C14 1_555 1_555
O5 C24 1_555 1_555
O6 C26 1_555 1_555
O7 C26 1_555 1_555
Pb1 N1 1_555 1_555
Pb2 N3 1_555 1_555
O5B Pb2 1_555 1_555
O6C Pb2 1_555 1_555
O7C Pb2 1_555 1_555
Pb2B O5 1_555 1_555
Pb2C O6 1_555 1_555
C8 C9 1_555 1_555
C9 N1 1_555 1_555
C15 N2 1_555 1_555
C16 N2 1_555 1_555
C24 C25 1_555 1_555
C25 N3 1_555 1_555
C27 C29 1_555 1_555
O1 Pb1 1_555 1_555
O1 Pb2 1_555 1_555
O2 Pb1 1_555 1_555
O3 Pb1 1_555 1_555
O4 Pb1 1_555 1_555
O5 Pb1 1_555 1_555
O5 Pb2 1_555 1_555
O7 Pb2C 1_555 1_555
O5B Pb2B 1_555 1_555

#END
