
#######################################################################
#
#                 Cambridge Crystallographic Data Centre
#                                CCDC 
#
#######################################################################
#
# If this CIF has been generated from an entry in the Cambridge 
# Structural Database, then it will include bibliographic, chemical, 
# crystal, experimental, refinement or atomic coordinate data resulting 
# from the CCDC's data processing and validation procedures.
#
#######################################################################

data_ZEQHOU
_symmetry_cell_setting           triclinic
_symmetry_space_group_name_H-M   'P -1'
_symmetry_Int_Tables_number      2
_space_group_name_Hall           '-P 1'
loop_
_symmetry_equiv_pos_site_id
_symmetry_equiv_pos_as_xyz
1 x,y,z
2 -x,-y,-z
_cell_length_a                   9.0896(9)
_cell_length_b                   10.6070(11)
_cell_length_c                   12.4955(12)
_cell_angle_alpha                92.005(1)
_cell_angle_beta                 107.317(1)
_cell_angle_gamma                109.065(1)
_cell_volume                     1075.31
loop_
_atom_site_label
_atom_site_type_symbol
_atom_site_fract_x
_atom_site_fract_y
_atom_site_fract_z
Zn1 Zn 0.61671(2) -0.100720(18) -0.378330(16)
S1 S 0.89996(5) -0.22314(5) -0.26252(4)
O1 O 0.79014(16) -0.20360(13) -0.36786(10)
O2 O 0.8743(2) -0.36366(16) -0.25496(14)
O3 O 1.06947(18) -0.13898(18) -0.23964(14)
O4 O 0.56819(17) -0.15453(13) -0.54981(11)
O5 O 0.47810(16) -0.00094(13) -0.34179(12)
N1 N 0.72751(18) -0.10106(15) -0.18844(12)
N2 N 0.42114(18) -0.28915(14) -0.38144(12)
N3 N -0.18825(17) -0.90956(14) -0.36910(13)
C1 C 0.6799(3) -0.0528(2) -0.10848(17)
H1 H 0.6065 -0.0071 -0.1300
C2 C 0.7353(3) -0.0682(2) 0.00400(17)
H2 H 0.7004 -0.0328 0.0570
C3 C 0.8427(3) -0.1364(2) 0.03688(17)
H3 H 0.8801 -0.1488 0.1122
C4 C 0.8948(2) -0.1865(2) -0.04323(17)
H4 H 0.9675 -0.2330 -0.0234
C5 C 0.8344(2) -0.16482(17) -0.15430(15)
C6 C 0.4311(3) -0.40937(19) -0.40958(19)
H5 H 0.5220 -0.4098 -0.4292
C7 C 0.3143(2) -0.53144(19) -0.41085(19)
H6 H 0.3265 -0.6114 -0.4319
C8 C 0.1772(2) -0.53481(17) -0.38040(15)
C9 C 0.1667(2) -0.41091(18) -0.35143(17)
H7 H 0.0777 -0.4076 -0.3307
C10 C 0.2884(2) -0.29288(18) -0.35350(16)
H8 H 0.2778 -0.2115 -0.3345
C11 C -0.0978(2) -0.90069(18) -0.43765(16)
H9 H -0.1160 -0.9786 -0.4840
C12 C 0.0209(2) -0.78279(18) -0.44360(16)
H10 H 0.0802 -0.7826 -0.4928
C13 C 0.0516(2) -0.66403(17) -0.37556(15)
C14 C -0.0406(2) -0.67314(19) -0.30289(17)
H11 H -0.0238 -0.5971 -0.2550
C15 C -0.1569(2) -0.79532(19) -0.30216(17)
H12 H -0.2167 -0.7988 -0.2528
C21 C 0.5646(2) -0.09916(17) -0.63664(15)
C22 C 0.6206(3) -0.1528(2) -0.7249(2)
H17 H 0.7270 -0.0916 -0.7213
H18 H 0.5431 -0.1614 -0.7988
H19 H 0.6272 -0.2395 -0.7107
Zn1A Zn 0.38329(2) 0.100720(18) -0.621670(16)
Zn1_2 Zn -0.38329(2) -1.100720(18) -0.378330(16)
Zn1A_2 Zn 1.38329(2) 1.100720(18) -0.621670(16)
S1A S 0.10004(5) 0.22314(5) -0.73748(4)
O1A O 0.20986(16) 0.20360(13) -0.63214(10)
O2A O 0.1257(2) 0.36366(16) -0.74504(14)
O3A O -0.06947(18) 0.13898(18) -0.76036(14)
O4A O 0.43181(17) 0.15453(13) -0.45019(11)
O5A O 0.52190(16) 0.00094(13) -0.65821(12)
N1A N 0.27249(18) 0.10106(15) -0.81156(12)
N2A N 0.57886(18) 0.28915(14) -0.61856(12)
N3_2 N 0.81175(17) 0.09044(14) -0.36910(13)
N3A N 1.18825(17) 0.90956(14) -0.63090(13)
N3A_2 N 0.18825(17) -0.09044(14) -0.63090(13)
C1A C 0.3201(3) 0.0528(2) -0.89152(17)
H1A H 0.3935 0.0071 -0.8700
C2A C 0.2647(3) 0.0682(2) -1.00400(17)
H2A H 0.2996 0.0328 -1.0570
C3A C 0.1573(3) 0.1364(2) -1.03688(17)
H3A H 0.1199 0.1488 -1.1122
C4A C 0.1052(2) 0.1865(2) -0.95677(17)
H4A H 0.0325 0.2330 -0.9766
C5A C 0.1656(2) 0.16482(17) -0.84570(15)
C6A C 0.5689(3) 0.40937(19) -0.59042(19)
H5A H 0.4780 0.4098 -0.5708
C7A C 0.6857(2) 0.53144(19) -0.58915(19)
H6A H 0.6735 0.6114 -0.5681
C8A C 0.8228(2) 0.53481(17) -0.61960(15)
C9A C 0.8333(2) 0.41091(18) -0.64857(17)
H7A H 0.9223 0.4076 -0.6693
C10A C 0.7116(2) 0.29288(18) -0.64650(16)
H8A H 0.7222 0.2115 -0.6655
C11A C 1.0978(2) 0.90069(18) -0.56235(16)
H9A H 1.1160 0.9786 -0.5160
C12A C 0.9791(2) 0.78279(18) -0.55640(16)
H10A H 0.9198 0.7826 -0.5072
C13A C 0.9484(2) 0.66403(17) -0.62444(15)
C14A C 1.0406(2) 0.67314(19) -0.69711(17)
H11A H 1.0238 0.5971 -0.7450
C15A C 1.1569(2) 0.79532(19) -0.69784(17)
H12A H 1.2167 0.7988 -0.7472
C21A C 0.4354(2) 0.09916(17) -0.36336(15)
C22A C 0.3794(3) 0.1528(2) -0.2751(2)
H17A H 0.2730 0.0916 -0.2787
H18A H 0.4569 0.1614 -0.2012
H19A H 0.3728 0.2395 -0.2893
N4 N 0.2196(3) -0.3407(3) -0.9687(3)
C16 C 0.2881(4) -0.3197(3) -1.0496(3)
H13 H 0.2615 -0.2612 -1.0992
C17 C 0.3965(3) -0.3789(3) -1.0651(2)
H14 H 0.4397 -0.3594 -1.1238
C18 C 0.4416(3) -0.4673(2) -0.99347(18)
C19 C 0.3708(4) -0.4886(3) -0.9087(3)
H15 H 0.3963 -0.5453 -0.8568
C20 C 0.2615(4) -0.4252(3) -0.9013(3)
H16 H 0.2143 -0.4437 -0.8443
N4A N 0.7804(3) -0.6593(3) -1.0313(3)
C16A C 0.7119(4) -0.6803(3) -0.9504(3)
H13A H 0.7385 -0.7388 -0.9008
C17A C 0.6035(3) -0.6211(3) -0.9349(2)
H14A H 0.5603 -0.6406 -0.8762
C18A C 0.5584(3) -0.5327(2) -1.00653(18)
C19A C 0.6292(4) -0.5114(3) -1.0913(3)
H15A H 0.6037 -0.4547 -1.1432
C20A C 0.7385(4) -0.5748(3) -1.0987(3)
H16A H 0.7857 -0.5563 -1.1557
loop_
_geom_bond_atom_site_label_1
_geom_bond_atom_site_label_2
_geom_bond_site_symmetry_1
_geom_bond_site_symmetry_2
Zn1 O1 1_555 1_555
S1 O1 1_555 1_555
O2 S1 1_555 1_555
O3 S1 1_555 1_555
O4 Zn1 1_555 1_555
O5 Zn1 1_555 1_555
N1 Zn1 1_555 1_555
N2 Zn1 1_555 1_555
N3 C11 1_555 1_555
N4 C16 1_555 1_555
C1 N1 1_555 1_555
H1 C1 1_555 1_555
C2 C1 1_555 1_555
H2 C2 1_555 1_555
C3 C2 1_555 1_555
H3 C3 1_555 1_555
C4 C3 1_555 1_555
H4 C4 1_555 1_555
C5 S1 1_555 1_555
C6 N2 1_555 1_555
H5 C6 1_555 1_555
C7 C6 1_555 1_555
H6 C7 1_555 1_555
C8 C7 1_555 1_555
C9 C8 1_555 1_555
H7 C9 1_555 1_555
C10 N2 1_555 1_555
H8 C10 1_555 1_555
C11 H9 1_555 1_555
C12 C11 1_555 1_555
H10 C12 1_555 1_555
C13 C8 1_555 1_555
C14 C13 1_555 1_555
H11 C14 1_555 1_555
C15 N3 1_555 1_555
H12 C15 1_555 1_555
C16 H13 1_555 1_555
C17 C16 1_555 1_555
H14 C17 1_555 1_555
C18 C17 1_555 1_555
C19 C18 1_555 1_555
H15 C19 1_555 1_555
C20 N4 1_555 1_555
H16 C20 1_555 1_555
C21 O4 1_555 1_555
C22 C21 1_555 1_555
H17 C22 1_555 1_555
H18 C22 1_555 1_555
H19 C22 1_555 1_555
Zn1A O1A 1_555 1_555
Zn1_2 N3 1_555 1_555
Zn1A_2 N3A 1_555 1_555
S1A O1A 1_555 1_555
O2A S1A 1_555 1_555
O3A S1A 1_555 1_555
O4A Zn1A 1_555 1_555
O5A C21 1_555 1_555
N1A Zn1A 1_555 1_555
N2A Zn1A 1_555 1_555
N3_2 Zn1 1_555 1_555
N3A C11A 1_555 1_555
N3A_2 Zn1A 1_555 1_555
N4A C16A 1_555 1_555
C1A N1A 1_555 1_555
H1A C1A 1_555 1_555
C2A C1A 1_555 1_555
H2A C2A 1_555 1_555
C3A C2A 1_555 1_555
H3A C3A 1_555 1_555
C4A C3A 1_555 1_555
H4A C4A 1_555 1_555
C5A S1A 1_555 1_555
C6A N2A 1_555 1_555
H5A C6A 1_555 1_555
C7A C6A 1_555 1_555
H6A C7A 1_555 1_555
C8A C7A 1_555 1_555
C9A C8A 1_555 1_555
H7A C9A 1_555 1_555
C10A N2A 1_555 1_555
H8A C10A 1_555 1_555
C11A H9A 1_555 1_555
C12A C11A 1_555 1_555
H10A C12A 1_555 1_555
C13A C8A 1_555 1_555
C14A C13A 1_555 1_555
H11A C14A 1_555 1_555
C15A N3A 1_555 1_555
H12A C15A 1_555 1_555
C16A H13A 1_555 1_555
C17A C16A 1_555 1_555
H14A C17A 1_555 1_555
C18A C18 1_555 1_555
C19A C18A 1_555 1_555
H15A C19A 1_555 1_555
C20A N4A 1_555 1_555
H16A C20A 1_555 1_555
C21A O5 1_555 1_555
C22A C21A 1_555 1_555
H17A C22A 1_555 1_555
H18A C22A 1_555 1_555
H19A C22A 1_555 1_555
N1 C5 1_555 1_555
C4 C5 1_555 1_555
C9 C10 1_555 1_555
C12 C13 1_555 1_555
C14 C15 1_555 1_555
C19 C20 1_555 1_555
Zn1A O5A 1_555 1_555
O4A C21A 1_555 1_555
N1A C5A 1_555 1_555
C4A C5A 1_555 1_555
C9A C10A 1_555 1_555
C12A C13A 1_555 1_555
C14A C15A 1_555 1_555
C17A C18A 1_555 1_555
C19A C20A 1_555 1_555

#END
