
#######################################################################
#
#                 Cambridge Crystallographic Data Centre
#                                CCDC 
#
#######################################################################
#
# If this CIF has been generated from an entry in the Cambridge 
# Structural Database, then it will include bibliographic, chemical, 
# crystal, experimental, refinement or atomic coordinate data resulting 
# from the CCDC's data processing and validation procedures.
#
#######################################################################

data_ZEQJAI
_symmetry_cell_setting           monoclinic
_symmetry_space_group_name_H-M   'P 21/c'
_symmetry_Int_Tables_number      14
_space_group_name_Hall           '-P 2ybc'
loop_
_symmetry_equiv_pos_site_id
_symmetry_equiv_pos_as_xyz
1 x,y,z
2 -x,1/2+y,1/2-z
3 -x,-y,-z
4 x,1/2-y,1/2+z
_cell_length_a                   11.4565(13)
_cell_length_b                   25.345(3)
_cell_length_c                   8.6199(10)
_cell_angle_alpha                90
_cell_angle_beta                 102.898(2)
_cell_angle_gamma                90
_cell_volume                     2439.77
loop_
_atom_site_label
_atom_site_type_symbol
_atom_site_fract_x
_atom_site_fract_y
_atom_site_fract_z
Zn1 Zn 0.63451(6) 0.70104(3) 0.74042(8)
C1 C 0.3946(6) 0.7351(3) 0.8271(9)
H1 H 0.4445 0.7605 0.8855
C2 C 0.2770(5) 0.7336(3) 0.8386(9)
H2 H 0.2501 0.7566 0.9071
C3 C 0.1980(5) 0.6978(3) 0.7487(7)
C4 C 0.2471(5) 0.6632(3) 0.6555(8)
H3 H 0.1992 0.6376 0.5953
C5 C 0.3661(5) 0.6667(3) 0.6523(8)
H4 H 0.3959 0.6431 0.5880
C6 C 0.0690(5) 0.6968(3) 0.7532(8)
C7 C 0.0169(5) 0.7376(3) 0.8171(9)
H5 H 0.0636 0.7659 0.8633
C8 C -0.1047(5) 0.7371(3) 0.8138(9)
H6 H -0.1368 0.7653 0.8594
C9 C -0.1263(5) 0.6575(3) 0.6888(8)
H7 H -0.1742 0.6291 0.6460
C10 C -0.0061(6) 0.6559(3) 0.6884(9)
H8 H 0.0249 0.6271 0.6442
C11 C 1.2044(7) 0.8719(4) 0.7033(11)
H9 H 1.2075 0.8498 0.7903
C12 C 1.3014(7) 0.8744(4) 0.6331(11)
H10 H 1.3674 0.8529 0.6704
C13 C 1.3019(7) 0.9082(4) 0.5092(11)
H11 H 1.3695 0.9116 0.4670
C14 C 1.2003(8) 0.9372(3) 0.4486(11)
H12 H 1.1980 0.9594 0.3620
C15 C 1.1027(7) 0.9336(3) 0.5153(12)
H13 H 1.0343 0.9530 0.4719
C16 C 1.1037(6) 0.9014(3) 0.6467(9)
C17 C 0.9977(6) 0.9009(3) 0.7258(10)
H14 H 1.0192 0.8805 0.8232
H15 H 0.9821 0.9367 0.7548
C18 C 0.8836(5) 0.8783(3) 0.6240(8)
H16 H 0.8954 0.8412 0.6046
H17 H 0.8654 0.8962 0.5221
C19 C 0.7787(5) 0.8843(3) 0.7036(8)
H18 H 0.7722 0.9211 0.7311
H19 H 0.7955 0.8642 0.8019
C20 C 0.6577(5) 0.8660(2) 0.6015(7)
H20 H 0.5971 0.8771 0.6592
C21 C 0.6317(5) 0.8979(3) 0.4454(7)
C22 C 0.6525(4) 0.8060(2) 0.5964(7)
N1 N 0.4416(4) 0.7016(2) 0.7350(6)
N2 N -0.1774(4) 0.6985(2) 0.7487(6)
O1 O 0.5983(4) 0.67162(18) 0.5072(5)
H21 H 0.5983 0.6393 0.5095
O2 O 0.6302(4) 0.78363(17) 0.7191(5)
O3 O 0.6736(4) 0.77983(17) 0.4827(5)
O4 O 0.6307(4) 0.87659(17) 0.3127(5)
O5 O 0.6166(5) 0.94633(18) 0.4599(6)
H30 H 0.622(6) 0.693(2) 0.445(7)
Zn1_2 Zn -0.36549(6) 0.70104(3) 0.74042(8)
Zn1C Zn 0.63451(6) 0.79896(3) 0.24042(8)
N2_2 N 0.8226(4) 0.6985(2) 0.7487(6)
O3C O 0.6736(4) 0.72017(17) 0.9827(5)
O4C O 0.6307(4) 0.62341(17) 0.8127(5)
O6 O 0.261(2) 0.5420(5) 0.5353(12)
H22 H 0.2036 0.5201 0.5085
H23 H 0.3300 0.5343 0.5217
O7 O 0.5704(5) -0.0043(2) 0.7168(6)
H24 H 0.5331 0.0247 0.7163
H25 H 0.6442 -0.0042 0.7141
O8 O 0.5373(5) 0.9294(2) 0.9527(7)
H26 H 0.5046 0.9569 0.9803
H27 H 0.6110 0.9298 0.9499
O9 O 0.7210(10) 0.9800(4) 0.2011(10)
H28 H 0.6868 1.0067 0.1511
H29 H 0.7954 0.9750 0.2091
loop_
_geom_bond_atom_site_label_1
_geom_bond_atom_site_label_2
_geom_bond_site_symmetry_1
_geom_bond_site_symmetry_2
Zn1 N1 1_555 1_555
C1 H1 1_555 1_555
C2 C1 1_555 1_555
H2 C2 1_555 1_555
C3 C2 1_555 1_555
C4 C3 1_555 1_555
H3 C4 1_555 1_555
C5 C4 1_555 1_555
H4 C5 1_555 1_555
C6 C3 1_555 1_555
C7 C6 1_555 1_555
H5 C7 1_555 1_555
C8 C7 1_555 1_555
H6 C8 1_555 1_555
C9 H7 1_555 1_555
C10 C6 1_555 1_555
H8 C10 1_555 1_555
C11 H9 1_555 1_555
C12 C11 1_555 1_555
H10 C12 1_555 1_555
C13 C12 1_555 1_555
H11 C13 1_555 1_555
C14 C13 1_555 1_555
H12 C14 1_555 1_555
C15 C14 1_555 1_555
H13 C15 1_555 1_555
C16 C11 1_555 1_555
C17 C16 1_555 1_555
H14 C17 1_555 1_555
H15 C17 1_555 1_555
C18 C17 1_555 1_555
H16 C18 1_555 1_555
H17 C18 1_555 1_555
C19 C18 1_555 1_555
H18 C19 1_555 1_555
H19 C19 1_555 1_555
C20 C19 1_555 1_555
H20 C20 1_555 1_555
C21 C20 1_555 1_555
C22 C20 1_555 1_555
N1 C1 1_555 1_555
N2 C8 1_555 1_555
O1 Zn1 1_555 1_555
H21 O1 1_555 1_555
O2 Zn1 1_555 1_555
O3 C22 1_555 1_555
O4 C21 1_555 1_555
O5 C21 1_555 1_555
O6 H22 1_555 1_555
H23 O6 1_555 1_555
O7 H24 1_555 1_555
H25 O7 1_555 1_555
O8 H26 1_555 1_555
H27 O8 1_555 1_555
O9 H28 1_555 1_555
H29 O9 1_555 1_555
H30 O1 1_555 1_555
Zn1_2 N2 1_555 1_555
Zn1C O3 1_555 1_555
N2_2 Zn1 1_555 1_555
O3C Zn1 1_555 1_555
O4C Zn1 1_555 1_555
C5 N1 1_555 1_555
C9 C10 1_555 1_555
C9 N2 1_555 1_555
C15 C16 1_555 1_555
C22 O2 1_555 1_555
O4 Zn1C 1_555 1_555

#END
