
#######################################################################
#
#                 Cambridge Crystallographic Data Centre
#                                CCDC 
#
#######################################################################
#
# If this CIF has been generated from an entry in the Cambridge 
# Structural Database, then it will include bibliographic, chemical, 
# crystal, experimental, refinement or atomic coordinate data resulting 
# from the CCDC's data processing and validation procedures.
#
#######################################################################

data_ZEQKEN
_symmetry_cell_setting           monoclinic
_symmetry_space_group_name_H-M   'P 21/c'
_symmetry_Int_Tables_number      14
_space_group_name_Hall           '-P 2ybc'
loop_
_symmetry_equiv_pos_site_id
_symmetry_equiv_pos_as_xyz
1 x,y,z
2 -x,1/2+y,1/2-z
3 -x,-y,-z
4 x,1/2-y,1/2+z
_cell_length_a                   12.586(1)
_cell_length_b                   15.341(4)
_cell_length_c                   11.345(1)
_cell_angle_alpha                90
_cell_angle_beta                 97.221(7)
_cell_angle_gamma                90
_cell_volume                     2173.14
loop_
_atom_site_label
_atom_site_type_symbol
_atom_site_fract_x
_atom_site_fract_y
_atom_site_fract_z
Co1 Co 0.86715(2) 0.03932(2) 0.72456(3)
C1 C 1.71229(18) 0.43043(15) 1.0747(2)
C2 C 1.62475(18) 0.41038(15) 0.9763(2)
C3 C 1.57611(19) 0.32847(16) 0.9717(2)
H1 H 1.5954 0.2876 1.0336
C4 C 1.49971(19) 0.30639(16) 0.8774(2)
H2 H 1.4652 0.2513 0.8759
C5 C 1.47393(19) 0.36543(16) 0.7851(2)
C6 C 1.52003(19) 0.44816(16) 0.7914(2)
H3 H 1.5005 0.4892 0.7298
C7 C 1.59425(19) 0.47069(16) 0.8872(2)
H4 H 1.6244 0.5276 0.8920
C8 C 1.40573(19) 0.33718(16) 0.6736(2)
C9 C 1.30700(18) 0.28539(15) 0.68421(19)
C10 C 1.27308(19) 0.22365(16) 0.5967(2)
H5 H 1.3141 0.2140 0.5331
C11 C 1.18000(19) 0.17662(16) 0.60229(19)
H6 H 1.1573 0.1345 0.5431
C12 C 1.11985(18) 0.19149(14) 0.69521(19)
C13 C 1.15325(18) 0.25233(15) 0.78273(19)
H7 H 1.1123 0.2614 0.8465
C14 C 1.24662(18) 0.30001(15) 0.77723(19)
H8 H 1.2690 0.3422 0.8364
C15 C 1.01994(18) 0.13977(15) 0.70338(19)
C16 C 1.03580(19) -0.08626(16) 0.6822(2)
H9 H 1.0231 -0.0600 0.6059
C17 C 1.1166(2) -0.14608(17) 0.7021(2)
H10 H 1.1586 -0.1608 0.6411
C18 C 1.1361(2) -0.18507(16) 0.8138(2)
H11 H 1.1924 -0.2262 0.8304
C19 C 1.0727(2) -0.16312(15) 0.8992(2)
H12 H 1.0842 -0.1892 0.9757
C20 C 0.99032(19) -0.10151(15) 0.8721(2)
C21 C 0.83592(19) -0.03451(15) 0.9655(2)
C22 C 0.7874(2) -0.04123(17) 1.0699(2)
H13 H 0.8161 -0.0796 1.1315
C23 C 0.6993(2) 0.00744(19) 1.0827(2)
H14 H 0.6661 0.0032 1.1532
C24 C 0.6579(2) 0.06350(18) 0.9920(2)
H15 H 0.5967 0.0984 0.9992
C25 C 0.7082(2) 0.06679(17) 0.8923(2)
H16 H 0.6799 0.1048 0.8300
N1 N 0.97257(15) -0.06222(12) 0.76547(16)
N2 N 0.92663(15) -0.08406(13) 0.96023(17)
H17 H 0.9489 -0.1104 1.0278
N3 N 0.79662(15) 0.01896(12) 0.87656(17)
O1 O 0.97524(13) 0.10007(10) 0.61369(13)
O2 O 0.98303(12) 0.13453(10) 0.80281(13)
O3 O 1.75737(13) 0.50448(11) 1.08105(14)
O4 O 1.74161(13) 0.37173(10) 1.14970(14)
O5 O 1.43256(14) 0.35407(12) 0.57664(14)
Co1C Co 1.86715(2) 0.46068(2) 1.22456(3)
C1C C 0.71229(18) 0.06957(15) 0.5747(2)
O3C O 0.75737(13) -0.00448(11) 0.58105(14)
O4C O 0.74161(13) 0.12827(10) 0.64970(14)
loop_
_geom_bond_atom_site_label_1
_geom_bond_atom_site_label_2
_geom_bond_site_symmetry_1
_geom_bond_site_symmetry_2
Co1 N1 1_555 1_555
C1 C2 1_555 1_555
C2 C3 1_555 1_555
C3 H1 1_555 1_555
C4 C3 1_555 1_555
H2 C4 1_555 1_555
C5 C4 1_555 1_555
C6 C5 1_555 1_555
H3 C6 1_555 1_555
C7 C2 1_555 1_555
H4 C7 1_555 1_555
C8 C5 1_555 1_555
C9 C8 1_555 1_555
C10 C9 1_555 1_555
H5 C10 1_555 1_555
C11 C10 1_555 1_555
H6 C11 1_555 1_555
C12 C11 1_555 1_555
C13 C12 1_555 1_555
H7 C13 1_555 1_555
C14 C9 1_555 1_555
H8 C14 1_555 1_555
C15 C12 1_555 1_555
C16 H9 1_555 1_555
C17 C16 1_555 1_555
H10 C17 1_555 1_555
C18 C17 1_555 1_555
H11 C18 1_555 1_555
C19 C18 1_555 1_555
H12 C19 1_555 1_555
C20 C19 1_555 1_555
C21 C22 1_555 1_555
C22 H13 1_555 1_555
C23 C22 1_555 1_555
H14 C23 1_555 1_555
C24 C23 1_555 1_555
H15 C24 1_555 1_555
C25 C24 1_555 1_555
H16 C25 1_555 1_555
N1 C16 1_555 1_555
N2 C20 1_555 1_555
H17 N2 1_555 1_555
N3 Co1 1_555 1_555
O1 Co1 1_555 1_555
O2 Co1 1_555 1_555
O3 C1 1_555 1_555
O4 C1 1_555 1_555
O5 C8 1_555 1_555
Co1C O3 1_555 1_555
C1C O3C 1_555 1_555
O3C Co1 1_555 1_555
O4C Co1 1_555 1_555
C6 C7 1_555 1_555
C13 C14 1_555 1_555
C15 O1 1_555 1_555
C15 O2 1_555 1_555
C20 N1 1_555 1_555
C21 N2 1_555 1_555
C21 N3 1_555 1_555
C25 N3 1_555 1_555
O4 Co1C 1_555 1_555
C1C O4C 1_555 1_555

#END
