
#######################################################################
#
#                 Cambridge Crystallographic Data Centre
#                                CCDC 
#
#######################################################################
#
# If this CIF has been generated from an entry in the Cambridge 
# Structural Database, then it will include bibliographic, chemical, 
# crystal, experimental, refinement or atomic coordinate data resulting 
# from the CCDC's data processing and validation procedures.
#
#######################################################################

data_ZEQMEN
_symmetry_cell_setting           triclinic
_symmetry_space_group_name_H-M   'P -1'
_symmetry_Int_Tables_number      2
_space_group_name_Hall           '-P 1'
loop_
_symmetry_equiv_pos_site_id
_symmetry_equiv_pos_as_xyz
1 x,y,z
2 -x,-y,-z
_cell_length_a                   10.578(4)
_cell_length_b                   11.603(5)
_cell_length_c                   8.027(4)
_cell_angle_alpha                92.11(5)
_cell_angle_beta                 103.10(3)
_cell_angle_gamma                76.32(4)
_cell_volume                     932.199
loop_
_atom_site_label
_atom_site_type_symbol
_atom_site_fract_x
_atom_site_fract_y
_atom_site_fract_z
Cu1 Cu -1.0786(1) 0.2475(1) 0.7447(2)
Cu2 Cu -0.5790(1) 0.2496(1) 0.7480(1)
O1 O -0.1878(6) 0.1277(5) 0.7100(7)
O2 O -0.2530(6) 0.3642(5) 0.7073(7)
O3 O -0.9051(6) 0.1327(5) 0.7855(7)
O4 O -0.9740(6) 0.3673(5) 0.7737(7)
O5 O -0.6949(6) 0.1332(5) 0.7908(7)
O6 O -0.7627(6) 0.3742(5) 0.7862(7)
O7 O -0.3974(6) 0.1236(5) 0.7055(7)
O8 O -0.4623(6) 0.3659(5) 0.7081(7)
N1 N -1.0521(9) 0.2436(8) 0.4214(9)
N2 N -1.0983(8) 0.2446(7) 0.0644(9)
N3 N -0.6648(7) 0.2549(6) 0.4967(8)
N4 N -0.7843(8) 0.2609(7) 0.1506(8)
N5 N -0.4947(7) 0.2476(6) 1.0000(8)
N6 N -0.3805(8) 0.2492(7) 1.3473(9)
C1 C -0.3079(9) 0.1743(7) 0.7080(9)
C2 C -0.3442(9) 0.3142(7) 0.7075(9)
C3 C -0.8125(9) 0.1830(8) 0.7878(9)
C4 C -0.8535(9) 0.3227(8) 0.7808(9)
C5 C -1.092(1) 0.3421(9) 0.329(1)
C6 C -1.115(1) 0.3430(9) 0.152(1)
C7 C -1.060(1) 0.1441(9) 0.157(1)
C8 C -1.035(1) 0.1448(9) 0.332(1)
C9 C -0.724(1) 0.3570(8) 0.413(1)
C10 C -0.782(1) 0.3598(9) 0.243(1)
C11 C -0.725(1) 0.1606(9) 0.237(1)
C12 C -0.6663(9) 0.1563(8) 0.407(1)
C13 C -0.5073(9) 0.3464(8) 1.087(1)
C14 C -0.448(1) 0.3458(9) 1.261(1)
C15 C -0.369(1) 0.1499(9) 1.258(1)
C16 C -0.4269(9) 0.1487(8) 1.086(1)
Cu1_2 Cu -0.0786(1) 0.2475(1) 0.7447(2)
O1_2 O -1.1878(6) 0.1277(5) 0.7100(7)
Cu1_3 Cu -1.0786(1) 0.2475(1) -0.2553(2)
O2_2 O -1.2530(6) 0.3642(5) 0.7073(7)
N2_2 N -1.0983(8) 0.2446(7) 1.0644(9)
loop_
_geom_bond_atom_site_label_1
_geom_bond_atom_site_label_2
_geom_bond_site_symmetry_1
_geom_bond_site_symmetry_2
Cu1 O3 1_555 1_555
Cu2 O5 1_555 1_555
O1 C1 1_555 1_555
O2 C2 1_555 1_555
O3 C3 1_555 1_555
O4 Cu1 1_555 1_555
O5 C3 1_555 1_555
O6 Cu2 1_555 1_555
O7 Cu2 1_555 1_555
O8 Cu2 1_555 1_555
N1 Cu1 1_555 1_555
N2 C6 1_555 1_555
N3 Cu2 1_555 1_555
N4 C10 1_555 1_555
N5 Cu2 1_555 1_555
N6 C14 1_555 1_555
C1 O7 1_555 1_555
C2 O8 1_555 1_555
C3 C4 1_555 1_555
C4 O4 1_555 1_555
C5 N1 1_555 1_555
C6 C5 1_555 1_555
C7 N2 1_555 1_555
C8 N1 1_555 1_555
C9 N3 1_555 1_555
C10 C9 1_555 1_555
C11 N4 1_555 1_555
C12 N3 1_555 1_555
C13 N5 1_555 1_555
C14 C13 1_555 1_555
C15 N6 1_555 1_555
C16 N5 1_555 1_555
Cu1_2 O1 1_555 1_555
O1_2 Cu1 1_555 1_555
Cu1_3 N2 1_555 1_555
O2_2 Cu1 1_555 1_555
N2_2 Cu1 1_555 1_555
O2 Cu1_2 1_555 1_555
O6 C4 1_555 1_555
C1 C2 1_555 1_555
C7 C8 1_555 1_555
C11 C12 1_555 1_555
C15 C16 1_555 1_555

#END
