
#######################################################################
#
#                 Cambridge Crystallographic Data Centre
#                                CCDC 
#
#######################################################################
#
# If this CIF has been generated from an entry in the Cambridge 
# Structural Database, then it will include bibliographic, chemical, 
# crystal, experimental, refinement or atomic coordinate data resulting 
# from the CCDC's data processing and validation procedures.
#
#######################################################################

data_ZERMUG
_symmetry_cell_setting           monoclinic
_symmetry_space_group_name_H-M   'P 21/n'
_symmetry_Int_Tables_number      14
_space_group_name_Hall           '-P 2yn'
loop_
_symmetry_equiv_pos_site_id
_symmetry_equiv_pos_as_xyz
1 x,y,z
2 1/2-x,1/2+y,1/2-z
3 -x,-y,-z
4 1/2+x,1/2-y,1/2+z
_cell_length_a                   12.385(4)
_cell_length_b                   10.429(3)
_cell_length_c                   17.436(5)
_cell_angle_alpha                90
_cell_angle_beta                 93.704(3)
_cell_angle_gamma                90
_cell_volume                     2247.38
loop_
_atom_site_label
_atom_site_type_symbol
_atom_site_fract_x
_atom_site_fract_y
_atom_site_fract_z
Lu1 Lu 0.650545(17) 0.133331(18) 0.960664(11)
O1 O 0.6311(3) 0.1323(3) 1.09262(19)
O2 O 0.6382(4) 0.3142(3) 1.0347(2)
O3 O 0.5260(3) 0.8603(3) 1.0534(2)
O4 O 0.6581(3) 0.9239(3) 0.98123(19)
O5 O 0.8287(4) 0.1476(6) 1.0228(3)
O6 O 0.8213(3) 0.1325(5) 0.9054(2)
O7 O 0.9770(4) 0.1530(6) 0.9635(3)
N1 N 0.6334(3) 0.3077(4) 0.8655(2)
N2 N 0.6256(3) 0.0552(4) 0.8270(2)
N3 N 0.8288(3) 0.5899(4) 1.0227(2)
N4 N 0.8794(4) 0.1470(7) 0.9630(3)
C1 C 0.6407(4) 0.4315(5) 0.8840(3)
H1 H 0.6584 0.4536 0.9349
C2 C 0.6228(4) 0.5285(5) 0.8303(3)
H2 H 0.6284 0.6138 0.8456
C3 C 0.5973(4) 0.4993(5) 0.7553(3)
H3 H 0.5860 0.5640 0.7190
C4 C 0.5881(4) 0.3704(5) 0.7337(3)
C5 C 0.6091(4) 0.2763(4) 0.7907(3)
C6 C 0.5603(4) 0.3297(6) 0.6569(3)
H4 H 0.5439 0.3914 0.6194
C7 C 0.5570(4) 0.2060(6) 0.6369(3)
H5 H 0.5380 0.1834 0.5862
C8 C 0.5823(4) 0.1079(5) 0.6925(3)
C9 C 0.6053(4) 0.1431(5) 0.7701(3)
C10 C 0.5878(4) -0.0220(5) 0.6741(3)
H6 H 0.5728 -0.0492 0.6237
C11 C 0.6151(4) -0.1081(5) 0.7299(3)
H7 H 0.6234 -0.1942 0.7177
C12 C 0.6307(4) -0.0669(5) 0.8060(3)
H8 H 0.6454 -0.1282 0.8440
C13 C 0.6392(4) 0.2507(5) 1.0957(3)
C14 C 0.6484(4) 0.3168(5) 1.1724(3)
C15 C 0.6223(4) 0.2447(5) 1.2354(3)
H9 H 0.6026 0.1592 1.2287
C16 C 0.6250(4) 0.2980(5) 1.3078(3)
H10 H 0.6072 0.2486 1.3495
C17 C 0.6540(4) 0.4242(5) 1.3184(3)
H11 H 0.6566 0.4601 1.3673
C18 C 0.6793(4) 0.4973(5) 1.2562(3)
H12 H 0.6984 0.5828 1.2637
C19 C 0.6769(4) 0.4459(4) 1.1823(3)
C20 C 0.7068(4) 0.5331(4) 1.1192(3)
C21 C 0.6469(4) 0.6429(4) 1.1022(3)
H13 H 0.5860 0.6610 1.1288
C22 C 0.6783(4) 0.7259(4) 1.0455(3)
C23 C 0.6163(4) 0.8447(4) 1.0256(3)
C24 C 0.7698(4) 0.6956(5) 1.0082(3)
H14 H 0.7918 0.7519 0.9709
C25 C 0.7966(4) 0.5112(5) 1.0772(3)
H15 H 0.8368 0.4372 1.0877
Lu1_2 Lu 0.650545(17) 1.133331(18) 0.960664(11)
Lu1B Lu 0.349455(17) 0.866669(18) 1.039336(11)
O3B O 0.4740(3) 0.1397(3) 0.9466(2)
O4_2 O 0.6581(3) -0.0761(3) 0.98123(19)
loop_
_geom_bond_atom_site_label_1
_geom_bond_atom_site_label_2
_geom_bond_site_symmetry_1
_geom_bond_site_symmetry_2
Lu1 O1 1_555 1_555
O1 C13 1_555 1_555
O2 Lu1 1_555 1_555
O3 C23 1_555 1_555
O4 C23 1_555 1_555
O5 Lu1 1_555 1_555
O6 Lu1 1_555 1_555
O7 N4 1_555 1_555
N1 Lu1 1_555 1_555
N2 Lu1 1_555 1_555
N3 C24 1_555 1_555
N4 O5 1_555 1_555
C1 N1 1_555 1_555
H1 C1 1_555 1_555
C2 C1 1_555 1_555
H2 C2 1_555 1_555
C3 C2 1_555 1_555
H3 C3 1_555 1_555
C4 C3 1_555 1_555
C5 N1 1_555 1_555
C6 C4 1_555 1_555
H4 C6 1_555 1_555
C7 C6 1_555 1_555
H5 C7 1_555 1_555
C8 C7 1_555 1_555
C9 N2 1_555 1_555
C10 C8 1_555 1_555
H6 C10 1_555 1_555
C11 C10 1_555 1_555
H7 C11 1_555 1_555
C12 N2 1_555 1_555
H8 C12 1_555 1_555
C13 O2 1_555 1_555
C14 C13 1_555 1_555
C15 C14 1_555 1_555
H9 C15 1_555 1_555
C16 C15 1_555 1_555
H10 C16 1_555 1_555
C17 C16 1_555 1_555
H11 C17 1_555 1_555
C18 C17 1_555 1_555
H12 C18 1_555 1_555
C19 C14 1_555 1_555
C20 C19 1_555 1_555
C21 C20 1_555 1_555
H13 C21 1_555 1_555
C22 C21 1_555 1_555
C23 C22 1_555 1_555
C24 C22 1_555 1_555
H14 C24 1_555 1_555
C25 N3 1_555 1_555
H15 C25 1_555 1_555
Lu1_2 O4 1_555 1_555
Lu1B O3 1_555 1_555
O3B Lu1 1_555 1_555
O4_2 Lu1 1_555 1_555
O6 N4 1_555 1_555
C4 C5 1_555 1_555
C5 C9 1_555 1_555
C8 C9 1_555 1_555
C11 C12 1_555 1_555
C18 C19 1_555 1_555
C20 C25 1_555 1_555

#END
