
#######################################################################
#
#                 Cambridge Crystallographic Data Centre
#                                CCDC 
#
#######################################################################
#
# If this CIF has been generated from an entry in the Cambridge 
# Structural Database, then it will include bibliographic, chemical, 
# crystal, experimental, refinement or atomic coordinate data resulting 
# from the CCDC's data processing and validation procedures.
#
#######################################################################

data_ZERRAR
_symmetry_cell_setting           monoclinic
_symmetry_space_group_name_H-M   'P 21'
_symmetry_Int_Tables_number      4
_space_group_name_Hall           'P 2yb'
loop_
_symmetry_equiv_pos_site_id
_symmetry_equiv_pos_as_xyz
1 x,y,z
2 -x,1/2+y,-z
_cell_length_a                   9.6700(4)
_cell_length_b                   15.5850(7)
_cell_length_c                   27.6340(14)
_cell_angle_alpha                90
_cell_angle_beta                 99.162(5)
_cell_angle_gamma                90
_cell_volume                     4111.5
loop_
_atom_site_label
_atom_site_type_symbol
_atom_site_fract_x
_atom_site_fract_y
_atom_site_fract_z
C21 C 0.4516(7) 0.6555(6) 0.7584(4)
C22 C 0.5889(7) 0.6587(6) 0.7853(4)
C23 C 0.6378(8) 0.6128(7) 0.8239(4)
H23 H 0.7326 0.6185 0.8390
C24 C 0.5449(8) 0.5529(7) 0.8434(4)
H24 H 0.5743 0.5220 0.8729
C25 C 0.4092(8) 0.5429(6) 0.8164(4)
H25 H 0.3491 0.5002 0.8261
C26 C 0.3620(7) 0.5928(6) 0.7769(3)
C27 C 0.2198(7) 0.5822(6) 0.7523(3)
H26 H 0.1616 0.5448 0.7673
C28 C 0.0141(7) 0.6111(5) 0.6982(3)
H27 H -0.0340 0.6611 0.7101
H28 H -0.0223 0.5580 0.7113
C29 C -0.0081(7) 0.6092(6) 0.6418(3)
H29 H 0.0148 0.5516 0.6303
H30 H -0.1073 0.6217 0.6286
C30 C 0.1324(7) 0.6489(5) 0.5781(3)
H31 H 0.1663 0.6991 0.5615
H32 H 0.0541 0.6223 0.5557
C31 C 0.2499(6) 0.5847(6) 0.5916(3)
H33 H 0.2108 0.5283 0.5990
H34 H 0.3020 0.5773 0.5638
C32 C 0.4722(6) 0.6631(5) 0.6225(3)
H35 H 0.5462 0.6675 0.6516
H36 H 0.5103 0.6306 0.5968
C33 C 0.4300(8) 0.7488(6) 0.6045(4)
H37 H 0.3818 0.7458 0.5701
H38 H 0.5131 0.7863 0.6058
C34 C 0.3138(6) 0.8684(5) 0.6387(3)
H39 H 0.3673 0.9031 0.6203
C35 C 0.2233(7) 0.9101(6) 0.6646(3)
C36 C 0.2103(7) 0.9988(6) 0.6609(3)
H40 H 0.2583 1.0279 0.6383
C37 C 0.1297(7) 1.0474(6) 0.6887(3)
H41 H 0.1227 1.1080 0.6852
C38 C 0.0620(8) 1.0047(7) 0.7208(4)
H42 H 0.0109 1.0365 0.7414
C39 C 0.0653(7) 0.9173(6) 0.7243(3)
C40 C 0.1474(6) 0.8659(5) 0.6977(3)
N5 N 0.1655(6) 0.6176(5) 0.7130(3)
N6 N 0.0853(6) 0.6756(5) 0.6239(3)
H43 H 0.0342 0.7260 0.6178
N7 N 0.3468(6) 0.6174(5) 0.6359(3)
H44 H 0.3779 0.5709 0.6558
N8 N 0.3331(6) 0.7835(5) 0.6369(3)
O3 O 0.4152(5) 0.7055(4) 0.7205(2)
O4 O 0.1486(5) 0.7806(4) 0.7040(3)
Cl3 Cl -0.0323(2) 0.86603(17) 0.76329(11)
Cl4 Cl 0.7046(2) 0.73082(18) 0.76427(11)
Fe2 Fe 0.25047(11) 0.69994(9) 0.67483(5)
C41 C 0.5045(6) 0.4893(4) 0.9732(3)
C42 C 0.5662(6) 0.5407(4) 1.0184(2)
C43 C 0.7916(8) 0.2674(5) 0.9791(4)
C44 C 0.7230(8) 0.2756(6) 1.0239(4)
C45 C 1.0450(7) 0.4870(6) 1.0220(3)
C46 C 0.9916(7) 0.5293(5) 0.9724(3)
O5 O 0.5883(4) 0.4398(4) 0.9560(2)
O6 O 0.6961(4) 0.5295(3) 1.0329(2)
O7 O 0.3769(5) 0.5007(4) 0.9560(3)
O8 O 0.4881(4) 0.5899(4) 1.0384(2)
O9 O 0.8287(5) 0.3362(4) 0.9619(3)
O10 O 0.7047(5) 0.3490(4) 1.0384(2)
O11 O 0.8072(5) 0.1952(4) 0.9599(3)
O12 O 0.6828(5) 0.2067(4) 1.0424(3)
O13 O 0.9571(5) 0.4417(4) 1.0395(2)
O14 O 0.8623(5) 0.5137(4) 0.9554(3)
O15 O 1.1718(6) 0.4974(4) 1.0396(3)
O16 O 1.0721(5) 0.5722(4) 0.9525(3)
Cr1 Cr 0.77411(12) 0.43629(9) 0.99747(6)
Mn1 Mn 0.27551(12) 0.59138(9) 0.99944(7)
O11A O 0.1928(5) 0.6952(4) 1.0401(3)
O12A O 0.3172(5) 0.7067(4) 0.9576(3)
O15_2 O 0.1718(6) 0.4974(4) 1.0396(3)
O16_2 O 0.0721(5) 0.5722(4) 0.9525(3)
Mn1_2 Mn 1.27551(12) 0.59138(9) 0.99944(7)
Mn1A Mn 0.72449(12) 0.09138(9) 1.00056(7)
C47 C 0.4821(7) 0.8692(6) 0.4720(3)
C48 C 0.5399(7) 0.9128(6) 0.5208(4)
C49 C 0.7821(6) 0.6422(5) 0.4763(3)
C50 C 0.7113(7) 0.6461(5) 0.5231(3)
C51 C 0.0285(7) 0.8603(5) 0.5211(3)
C52 C -0.0324(7) 0.9093(4) 0.4736(3)
O17 O 0.5697(5) 0.8200(4) 0.4548(3)
O18 O 0.6691(5) 0.8998(4) 0.5387(3)
O19 O 0.3600(5) 0.8819(4) 0.4535(3)
O20 O 0.4568(5) 0.9556(4) 0.5424(2)
O21 O 0.8097(5) 0.7139(4) 0.4590(2)
O22 O 0.6867(5) 0.7192(4) 0.5372(3)
O23 O 0.8060(5) 0.5704(4) 0.4589(3)
O24 O 0.6874(5) 0.5748(4) 0.5421(3)
O25 O -0.0561(4) 0.8135(4) 0.5384(2)
O26 O -0.1608(5) 0.8972(4) 0.4588(2)
O27 O 0.0463(4) 0.9578(4) 0.4543(2)
O28 O 0.1559(5) 0.8690(4) 0.5364(2)
Cr2 Cr 0.75477(12) 0.81180(10) 0.49861(7)
Mn2 Mn 0.25377(12) 0.96609(9) 0.49694(6)
O23A O 0.1940(5) 1.0704(4) 0.5411(3)
O24A O 0.3126(5) 1.0748(4) 0.4579(3)
O25_2 O 0.9439(4) 0.8135(4) 0.5384(2)
O26_2 O 0.8392(5) 0.8972(4) 0.4588(2)
Cr2_2 Cr -0.24523(12) 0.81180(10) 0.49861(7)
Mn2A Mn 0.74623(12) 0.46609(9) 0.50306(6)
C53 C 0.4110(9) 0.2151(7) 0.6552(4)
H45 H 0.4383 0.2013 0.6900
H46 H 0.4505 0.1724 0.6353
H47 H 0.3086 0.2148 0.6468
O29 O 0.4634(5) 0.2990(5) 0.6456(3)
H48 H 0.5317 0.2939 0.6304
C54 C 0.6001(7) 0.4639(5) 0.7065(3)
H49 H 0.6563 0.4970 0.6865
H50 H 0.6413 0.4068 0.7129
H51 H 0.5985 0.4936 0.7376
O30 O 0.4602(5) 0.4557(5) 0.6808(3)
H52 H 0.4363 0.4038 0.6799
C55 C 0.0718(9) 0.6908(7) 0.8434(4)
H53 H 0.0158 0.7389 0.8523
H54 H 0.0732 0.6919 0.8080
H55 H 0.1677 0.6955 0.8610
O31 O 0.0126(6) 0.6132(4) 0.8559(2)
H56 H 0.0252 0.6080 0.8865
C56 C 0.8795(8) 0.4333(7) 0.8044(4)
H57 H 0.8353 0.4330 0.8339
H58 H 0.8662 0.3773 0.7881
H59 H 0.8366 0.4781 0.7819
O32 O 1.0245(5) 0.4500(5) 0.8175(3)
H60 H 1.0371 0.4852 0.8408
C57 C 0.6259(10) 0.7935(7) 0.9135(4)
H61 H 0.5975 0.8520 0.9205
H62 H 0.5454 0.7549 0.9121
H63 H 0.6599 0.7926 0.8819
C58 C 0.7333(10) 0.7664(6) 0.9507(4)
N9 N 0.8392(9) 0.7525(6) 0.9771(4)
C59 C 0.2150(9) 0.4803(6) 0.1588(4)
H64 H 0.1562 0.4594 0.1289
H65 H 0.1559 0.4945 0.1833
H66 H 0.2823 0.4357 0.1717
C60 C 0.2923(8) 0.5587(6) 0.1470(4)
N10 N 0.3607(7) 0.6094(5) 0.1334(3)
C61 C 0.6996(9) 0.9113(6) 0.6666(4)
H67 H 0.6279 0.8870 0.6839
H68 H 0.6544 0.9450 0.6385
H69 H 0.7621 0.9484 0.6889
C62 C 0.7802(10) 0.8425(8) 0.6494(5)
N11 N 0.8392(6) 0.7821(4) 0.6399(2)
C63 C 0.8628(12) 0.0851(8) 0.5855(5)
H70 H 0.8158 0.0399 0.6015
H71 H 0.9128 0.1234 0.6105
H72 H 0.9297 0.0590 0.5667
C64 C 0.7539(17) 0.1364(11) 0.5510(7)
N12 N 0.6904(10) 0.1749(6) 0.5196(4)
C1 C 0.0369(8) 0.2544(6) 0.7403(4)
C2 C -0.1019(8) 0.2463(6) 0.7141(4)
C3 C -0.1434(7) 0.2970(6) 0.6719(3)
H1 H -0.2343 0.2902 0.6534
C4 C -0.0530(8) 0.3557(7) 0.6577(4)
H2 H -0.0840 0.3927 0.6308
C5 C 0.0771(8) 0.3616(6) 0.6808(4)
H3 H 0.1401 0.3994 0.6684
C6 C 0.1263(7) 0.3128(6) 0.7242(3)
C7 C 0.2665(7) 0.3278(6) 0.7467(3)
H4 H 0.3218 0.3668 0.7315
C8 C 0.4740(7) 0.2972(6) 0.8075(3)
H5 H 0.5248 0.2476 0.7964
H6 H 0.5128 0.3501 0.7951
C9 C 0.4942(7) 0.2992(7) 0.8603(3)
H7 H 0.4715 0.3570 0.8717
H8 H 0.5932 0.2864 0.8737
C10 C 0.3492(7) 0.2628(5) 0.9226(3)
H9 H 0.4252 0.2916 0.9450
H10 H 0.3161 0.2131 0.9400
C11 C 0.2293(6) 0.3250(5) 0.9069(3)
H11 H 0.1761 0.3336 0.9344
H12 H 0.2675 0.3812 0.8989
C12 C 0.0086(7) 0.2459(6) 0.8737(3)
H13 H -0.0588 0.2400 0.8429
H14 H -0.0375 0.2777 0.8977
C13 C 0.0557(8) 0.1570(6) 0.8939(4)
H15 H 0.1021 0.1618 0.9284
H16 H -0.0262 0.1185 0.8927
C14 C 0.1719(6) 0.0450(5) 0.8643(3)
H17 H 0.1247 0.0122 0.8857
C15 C 0.2636(7) -0.0028(6) 0.8342(3)
C16 C 0.2718(7) -0.0917(5) 0.8395(3)
H18 H 0.2195 -0.1198 0.8612
C17 C 0.3533(7) -0.1381(6) 0.8140(3)
H19 H 0.3576 -0.1987 0.8176
C18 C 0.4333(8) -0.0964(7) 0.7817(4)
H20 H 0.4909 -0.1285 0.7635
C19 C 0.4249(8) -0.0092(6) 0.7777(4)
C20 C 0.3394(7) 0.0437(6) 0.8040(3)
N1 N 0.3226(6) 0.2903(5) 0.7872(3)
N2 N 0.4008(6) 0.2339(5) 0.8779(3)
H21 H 0.4518 0.1836 0.8851
N3 N 0.1356(6) 0.2923(5) 0.8644(3)
H22 H 0.1067 0.3385 0.8440
N4 N 0.1532(6) 0.1229(5) 0.8636(3)
O1 O 0.0710(4) 0.2029(4) 0.7787(2)
O2 O 0.3414(5) 0.1235(4) 0.7979(3)
Cl1 Cl -0.21720(19) 0.17705(18) 0.73494(11)
Cl2 Cl 0.51995(19) 0.04267(16) 0.73759(10)
Fe1 Fe 0.23687(11) 0.20807(9) 0.82589(5)
loop_
_geom_bond_atom_site_label_1
_geom_bond_atom_site_label_2
_geom_bond_site_symmetry_1
_geom_bond_site_symmetry_2
C1 C2 1_555 1_555
C2 C3 1_555 1_555
C3 H1 1_555 1_555
C4 C3 1_555 1_555
H2 C4 1_555 1_555
C5 C4 1_555 1_555
H3 C5 1_555 1_555
C6 C1 1_555 1_555
C7 C6 1_555 1_555
H4 C7 1_555 1_555
C8 H5 1_555 1_555
H6 C8 1_555 1_555
C9 C8 1_555 1_555
H7 C9 1_555 1_555
H8 C9 1_555 1_555
C10 H9 1_555 1_555
H10 C10 1_555 1_555
C11 C10 1_555 1_555
H11 C11 1_555 1_555
H12 C11 1_555 1_555
C12 H13 1_555 1_555
H14 C12 1_555 1_555
C13 C12 1_555 1_555
H15 C13 1_555 1_555
H16 C13 1_555 1_555
C14 H17 1_555 1_555
C15 C14 1_555 1_555
C16 C15 1_555 1_555
H18 C16 1_555 1_555
C17 C16 1_555 1_555
H19 C17 1_555 1_555
C18 C17 1_555 1_555
H20 C18 1_555 1_555
C19 C18 1_555 1_555
C20 C15 1_555 1_555
N1 C7 1_555 1_555
N2 C9 1_555 1_555
H21 N2 1_555 1_555
N3 C11 1_555 1_555
H22 N3 1_555 1_555
N4 C13 1_555 1_555
O1 C1 1_555 1_555
O2 C20 1_555 1_555
Cl1 C2 1_555 1_555
Cl2 C19 1_555 1_555
Fe1 N1 1_555 1_555
C21 C22 1_555 1_555
C22 C23 1_555 1_555
C23 H23 1_555 1_555
C24 C23 1_555 1_555
H24 C24 1_555 1_555
C25 C24 1_555 1_555
H25 C25 1_555 1_555
C26 C21 1_555 1_555
C27 C26 1_555 1_555
H26 C27 1_555 1_555
C28 H27 1_555 1_555
H28 C28 1_555 1_555
C29 C28 1_555 1_555
H29 C29 1_555 1_555
H30 C29 1_555 1_555
C30 H31 1_555 1_555
H32 C30 1_555 1_555
C31 C30 1_555 1_555
H33 C31 1_555 1_555
H34 C31 1_555 1_555
C32 H35 1_555 1_555
H36 C32 1_555 1_555
C33 C32 1_555 1_555
H37 C33 1_555 1_555
H38 C33 1_555 1_555
C34 H39 1_555 1_555
C35 C34 1_555 1_555
C36 C35 1_555 1_555
H40 C36 1_555 1_555
C37 C36 1_555 1_555
H41 C37 1_555 1_555
C38 C37 1_555 1_555
H42 C38 1_555 1_555
C39 C38 1_555 1_555
C40 C35 1_555 1_555
N5 C27 1_555 1_555
N6 C29 1_555 1_555
H43 N6 1_555 1_555
N7 C31 1_555 1_555
H44 N7 1_555 1_555
N8 C33 1_555 1_555
O3 C21 1_555 1_555
O4 C40 1_555 1_555
Cl3 C39 1_555 1_555
Cl4 C22 1_555 1_555
Fe2 N5 1_555 1_555
C41 C42 1_555 1_555
C42 O6 1_555 1_555
C43 C44 1_555 1_555
C44 O10 1_555 1_555
C45 C46 1_555 1_555
C46 O14 1_555 1_555
O5 C41 1_555 1_555
O6 Cr1 1_555 1_555
O7 C41 1_555 1_555
O8 C42 1_555 1_555
O9 C43 1_555 1_555
O10 Cr1 1_555 1_555
O11 C43 1_555 1_555
O12 C44 1_555 1_555
O13 C45 1_555 1_555
O14 Cr1 1_555 1_555
O15 C45 1_555 1_555
O16 C46 1_555 1_555
Cr1 O5 1_555 1_555
Mn1 O7 1_555 1_555
C47 C48 1_555 1_555
C48 O18 1_555 1_555
C49 C50 1_555 1_555
C50 O22 1_555 1_555
C51 C52 1_555 1_555
C52 O26 1_555 1_555
O17 C47 1_555 1_555
O18 Cr2 1_555 1_555
O19 C47 1_555 1_555
O20 C48 1_555 1_555
O21 C49 1_555 1_555
O22 Cr2 1_555 1_555
O23 C49 1_555 1_555
O24 C50 1_555 1_555
O25 C51 1_555 1_555
O26 Cr2_2 1_555 1_555
O27 C52 1_555 1_555
O28 C51 1_555 1_555
Cr2 O17 1_555 1_555
Mn2 O19 1_555 1_555
C53 H45 1_555 1_555
H46 C53 1_555 1_555
H47 C53 1_555 1_555
O29 C53 1_555 1_555
H48 O29 1_555 1_555
C54 H49 1_555 1_555
H50 C54 1_555 1_555
H51 C54 1_555 1_555
O30 C54 1_555 1_555
H52 O30 1_555 1_555
C55 H53 1_555 1_555
H54 C55 1_555 1_555
H55 C55 1_555 1_555
O31 C55 1_555 1_555
H56 O31 1_555 1_555
C56 H57 1_555 1_555
H58 C56 1_555 1_555
H59 C56 1_555 1_555
O32 C56 1_555 1_555
H60 O32 1_555 1_555
C57 H61 1_555 1_555
H62 C57 1_555 1_555
H63 C57 1_555 1_555
C58 C57 1_555 1_555
N9 C58 1_555 1_555
C59 H64 1_555 1_555
H65 C59 1_555 1_555
H66 C59 1_555 1_555
C60 C59 1_555 1_555
N10 C60 1_555 1_555
C61 H67 1_555 1_555
H68 C61 1_555 1_555
H69 C61 1_555 1_555
C62 C61 1_555 1_555
N11 C62 1_555 1_555
C63 H70 1_555 1_555
H71 C63 1_555 1_555
H72 C63 1_555 1_555
C64 C63 1_555 1_555
N12 C64 1_555 1_555
O11A Mn1 1_555 1_555
O12A Mn1 1_555 1_555
O15_2 Mn1 1_555 1_555
O16_2 Mn1 1_555 1_555
Mn1_2 O15 1_555 1_555
Mn1A O11 1_555 1_555
O23A Mn2 1_555 1_555
O24A Mn2 1_555 1_555
O25_2 Cr2 1_555 1_555
O26_2 Cr2 1_555 1_555
Cr2_2 O25 1_555 1_555
Mn2A O23 1_555 1_555
C5 C6 1_555 1_555
C8 N1 1_555 1_555
C10 N2 1_555 1_555
C12 N3 1_555 1_555
C14 N4 1_555 1_555
C19 C20 1_555 1_555
N2 Fe1 1_555 1_555
N3 Fe1 1_555 1_555
N4 Fe1 1_555 1_555
O1 Fe1 1_555 1_555
O2 Fe1 1_555 1_555
C25 C26 1_555 1_555
C28 N5 1_555 1_555
C30 N6 1_555 1_555
C32 N7 1_555 1_555
C34 N8 1_555 1_555
C39 C40 1_555 1_555
N6 Fe2 1_555 1_555
N7 Fe2 1_555 1_555
N8 Fe2 1_555 1_555
O3 Fe2 1_555 1_555
O4 Fe2 1_555 1_555
O8 Mn1 1_555 1_555
O9 Cr1 1_555 1_555
O12 Mn1A 1_555 1_555
O13 Cr1 1_555 1_555
O16 Mn1_2 1_555 1_555
O20 Mn2 1_555 1_555
O21 Cr2 1_555 1_555
O24 Mn2A 1_555 1_555
O27 Mn2 1_555 1_555
O28 Mn2 1_555 1_555

#END
