
#######################################################################
#
#                 Cambridge Crystallographic Data Centre
#                                CCDC 
#
#######################################################################
#
# If this CIF has been generated from an entry in the Cambridge 
# Structural Database, then it will include bibliographic, chemical, 
# crystal, experimental, refinement or atomic coordinate data resulting 
# from the CCDC's data processing and validation procedures.
#
#######################################################################

data_ZERTUN
_symmetry_cell_setting           triclinic
_symmetry_space_group_name_H-M   'P -1'
_symmetry_Int_Tables_number      2
_space_group_name_Hall           '-P 1'
loop_
_symmetry_equiv_pos_site_id
_symmetry_equiv_pos_as_xyz
1 x,y,z
2 -x,-y,-z
_cell_length_a                   9.9158(1)
_cell_length_b                   16.0847(2)
_cell_length_c                   16.8007(2)
_cell_angle_alpha                64.814
_cell_angle_beta                 87.051(1)
_cell_angle_gamma                88.193(1)
_cell_volume                     2421.49
loop_
_atom_site_label
_atom_site_type_symbol
_atom_site_fract_x
_atom_site_fract_y
_atom_site_fract_z
Cd1 Cd 0.953420(11) 0.938790(8) 0.144880(7)
Cd2 Cd 0.548300(12) 0.581020(8) 0.849170(7)
O1 O 0.50843(16) 0.72956(11) 0.28476(10)
O2 O 1.28212(19) 0.98476(10) 0.34480(11)
O3 O 0.97987(18) 0.49499(12) 0.68916(12)
O4 O 0.23132(19) 0.83261(10) 0.64006(11)
O5 O 0.78104(13) 0.91479(8) 0.26283(8)
O6 O 0.97668(14) 0.84291(10) 0.29674(8)
O7 O 0.73008(14) 0.66950(9) 0.73768(8)
O8 O 0.54277(14) 0.63202(10) 0.69655(8)
O9 O 1.17733(12) 0.92888(9) 0.12203(8)
O10 O 1.14077(13) 0.96323(9) -0.01728(9)
O11 O 0.63836(12) 0.55728(9) 0.97899(8)
O12 O 0.66945(13) 0.45055(10) 1.11399(9)
N1 N 0.86400(15) 0.81232(10) 0.13382(10)
N2 N 0.63431(18) 0.62146(11) 0.26132(11)
H1 H 0.6404 0.5635 0.2754
N3 N 0.99845(15) 1.07420(10) 0.15716(10)
N4 N 1.22194(17) 1.13530(11) 0.29222(10)
H2 H 1.2404 1.1860 0.2947
N5 N 0.64464(16) 0.44492(10) 0.85677(10)
N6 N 0.87074(18) 0.36245(11) 0.72413(11)
H3 H 0.8666 0.3160 0.7117
N7 N 0.49901(15) 0.72722(10) 0.84017(10)
N8 N 0.28149(17) 0.92259(10) 0.70725(10)
H4 H 0.2622 0.9745 0.7087
C1 C 0.92283(19) 1.14990(13) 0.12500(12)
H5 H 0.8527 1.1528 0.0892
C2 C 0.9446(2) 1.22450(13) 0.14280(14)
H6 H 0.8922 1.2776 0.1176
C3 C 1.0450(2) 1.21910(13) 0.19836(13)
H7 H 1.0600 1.2682 0.2121
C4 C 1.12341(19) 1.14022(12) 0.23361(12)
C5 C 1.09827(19) 1.06937(12) 0.20990(12)
H8 H 1.1525 1.0169 0.2314
C6 C 1.2922(2) 1.05909(13) 0.34601(13)
C7 C 1.3811(2) 1.07574(14) 0.40838(13)
H9 H 1.4443 1.1241 0.3743
H10 H 1.3250 1.0969 0.4452
C8 C 1.4594(2) 0.99119(14) 0.46669(13)
H11 H 1.5206 0.9724 0.4303
H12 H 1.3970 0.9414 0.4981
C9 C 0.9253(2) 0.77992(15) 0.08060(14)
H13 H 0.9916 0.8150 0.0401
C10 C 0.8936(3) 0.69562(17) 0.08353(17)
H14 H 0.9385 0.6742 0.0458
C11 C 0.7951(3) 0.64376(15) 0.14277(16)
H15 H 0.7733 0.5866 0.1460
C12 C 0.7288(2) 0.67737(12) 0.19746(12)
C13 C 0.76649(19) 0.76219(12) 0.19093(11)
H16 H 0.7225 0.7854 0.2275
C14 C 0.5346(2) 0.64880(15) 0.30313(13)
C15 C 0.4608(2) 0.57033(16) 0.37702(13)
H17 H 0.4528 0.5196 0.3609
H18 H 0.3704 0.5904 0.3862
C16 C 0.5365(2) 0.53829(15) 0.46172(13)
H19 H 0.6258 0.5168 0.4525
H20 H 0.5472 0.5899 0.4763
C17 C 0.5929(2) 0.36533(14) 0.91452(14)
H21 H 0.5302 0.3654 0.9576
C18 C 0.6291(3) 0.28332(15) 0.91228(16)
H22 H 0.5909 0.2288 0.9530
C19 C 0.7227(2) 0.28253(14) 0.84918(15)
H23 H 0.7477 0.2275 0.8465
C20 C 0.77905(19) 0.36416(12) 0.78999(12)
C21 C 0.73716(19) 0.44442(12) 0.79597(12)
H24 H 0.7746 0.4998 0.7564
C22 C 0.9651(2) 0.42639(15) 0.67801(13)
C23 C 1.0512(2) 0.40437(16) 0.61211(14)
H25 H 1.0108 0.3539 0.6050
H26 H 1.1401 0.3844 0.6351
C24 C 1.0659(2) 0.48572(17) 0.52296(14)
H27 H 1.1014 0.5372 0.5306
H28 H 1.1305 0.4701 0.4860
C25 C 0.5695(2) 0.76690(13) 0.87939(13)
H29 H 0.6358 0.7327 0.9175
C26 C 0.5477(2) 0.85714(14) 0.86554(14)
H30 H 0.5974 0.8830 0.8946
C27 C 0.4513(2) 0.90809(13) 0.80806(13)
H31 H 0.4354 0.9691 0.7977
C28 C 0.37785(19) 0.86822(12) 0.76570(12)
C29 C 0.40350(19) 0.77616(12) 0.78468(12)
H32 H 0.3531 0.7478 0.7582
C30 C 0.2144(2) 0.90354(13) 0.64836(12)
C31 C 0.1204(2) 0.97989(13) 0.59326(12)
H33 H 0.0559 0.9926 0.6322
H34 H 0.1728 1.0350 0.5610
C32 C 0.0441(2) 0.95902(13) 0.52866(13)
H35 H -0.0129 0.9061 0.5606
H36 H 0.1077 0.9437 0.4911
C33 C 0.85886(19) 0.85712(11) 0.31783(11)
C34 C 0.80642(19) 0.80409(11) 0.41101(11)
C35 C 0.89572(19) 0.76680(13) 0.47865(12)
H37 H 0.9883 0.7716 0.4658
C36 C 0.84774(19) 0.72234(13) 0.56543(11)
H38 H 0.9080 0.6996 0.6107
C37 C 0.70936(19) 0.71181(11) 0.58465(11)
C38 C 0.62025(19) 0.74538(13) 0.51690(11)
H39 H 0.5281 0.7358 0.5294
C39 C 0.66807(19) 0.79331(12) 0.43025(11)
H40 H 0.6077 0.8181 0.3852
C40 C 0.65723(19) 0.66796(11) 0.67906(11)
C41 C 1.21651(16) 0.95628(10) 0.04254(11)
C42 C 1.36345(16) 0.97868(11) 0.02041(10)
C43 C 1.45641(17) 0.94757(12) 0.08641(11)
H41 H 1.4275 0.9123 0.1444
C44 C 1.40823(17) 1.03117(12) -0.06615(11)
H42 H 1.3468 1.0521 -0.1107
C45 C 0.71146(16) 0.50257(11) 1.03754(11)
C46 C 0.86108(16) 0.50082(10) 1.01784(10)
C47 C 0.94917(17) 0.46266(12) 1.08636(11)
H43 H 0.9154 0.4379 1.1444
C48 C 0.91277(17) 0.53866(12) 0.93138(11)
H44 H 0.8545 0.5650 0.8852
O1A O 0.49157(16) 0.27044(11) 0.71524(10)
N1A N 0.13600(15) 0.18768(10) 0.86618(10)
N2A N 0.36569(18) 0.37854(11) 0.73868(11)
H1A H 0.3596 0.4365 0.7246
C9A C 0.0747(2) 0.22008(15) 0.91940(14)
H13A H 0.0084 0.1850 0.9599
C10A C 0.1064(3) 0.30438(17) 0.91647(17)
H14A H 0.0615 0.3258 0.9542
C11A C 0.2049(3) 0.35624(15) 0.85723(16)
H15A H 0.2267 0.4134 0.8540
C12A C 0.2712(2) 0.32263(12) 0.80254(12)
C13A C 0.23351(19) 0.23781(12) 0.80907(11)
H16A H 0.2775 0.2146 0.7725
C14A C 0.4654(2) 0.35120(15) 0.69687(13)
C15A C 0.5392(2) 0.42967(16) 0.62298(13)
H17A H 0.5472 0.4804 0.6391
H18A H 0.6296 0.4096 0.6138
C16A C 0.4635(2) 0.46171(15) 0.53828(13)
H19A H 0.3742 0.4832 0.5475
H20A H 0.4528 0.4101 0.5237
O2A O 1.71788(19) 1.01524(10) 0.65520(11)
N3A N 2.00155(15) 0.92580(10) 0.84284(10)
N4A N 1.77806(17) 0.86470(11) 0.70778(10)
H2A H 1.7596 0.8140 0.7053
C1A C 2.07717(19) 0.85010(13) 0.87500(12)
H5A H 2.1473 0.8472 0.9108
C2A C 2.0554(2) 0.77550(13) 0.85720(14)
H6A H 2.1078 0.7224 0.8824
C3A C 1.9550(2) 0.78090(13) 0.80164(13)
H7A H 1.9400 0.7318 0.7879
C4A C 1.87659(19) 0.85978(12) 0.76639(12)
C5A C 1.90173(19) 0.93063(12) 0.79010(12)
H8A H 1.8475 0.9831 0.7686
C6A C 1.7078(2) 0.94091(13) 0.65399(13)
C7A C 1.6189(2) 0.92426(14) 0.59162(13)
H9A H 1.5557 0.8759 0.6257
H10A H 1.6750 0.9031 0.5548
C8A C 1.5406(2) 1.00881(14) 0.53331(13)
H11A H 1.4794 1.0276 0.5697
H12A H 1.6030 1.0586 0.5019
O3A O 1.02013(18) 0.50501(12) 0.31084(12)
N5A N 1.35536(16) 0.55508(10) 0.14323(10)
N6A N 1.12926(18) 0.63755(11) 0.27587(11)
H3A H 1.1334 0.6840 0.2883
C17A C 1.4071(2) 0.63467(14) 0.08548(14)
H21A H 1.4698 0.6346 0.0424
C18A C 1.3709(3) 0.71668(15) 0.08772(16)
H22A H 1.4091 0.7712 0.0470
C19A C 1.2773(2) 0.71747(14) 0.15082(15)
H23A H 1.2523 0.7725 0.1535
C20A C 1.22095(19) 0.63584(12) 0.21001(12)
C21A C 1.26284(19) 0.55558(12) 0.20403(12)
H24A H 1.2254 0.5002 0.2436
C22A C 1.0349(2) 0.57361(15) 0.32199(13)
C23A C 0.9488(2) 0.59563(16) 0.38789(14)
H25A H 0.9892 0.6461 0.3950
H26A H 0.8599 0.6156 0.3649
C24A C 0.9341(2) 0.51428(17) 0.47704(14)
H27A H 0.8986 0.4628 0.4694
H28A H 0.8695 0.5299 0.5140
O4A O -0.23132(19) 1.16739(10) 0.35994(11)
N7A N -0.49901(15) 1.27278(10) 0.15983(10)
N8A N -0.28149(17) 1.07741(10) 0.29275(10)
H4A H -0.2622 1.0255 0.2913
C25A C -0.5695(2) 1.23310(13) 0.12061(13)
H29A H -0.6358 1.2673 0.0825
C26A C -0.5477(2) 1.14286(14) 0.13446(14)
H30A H -0.5974 1.1170 0.1054
C27A C -0.4513(2) 1.09191(13) 0.19194(13)
H31A H -0.4354 1.0309 0.2023
C28A C -0.37785(19) 1.13178(12) 0.23430(12)
C29A C -0.40350(19) 1.22384(12) 0.21532(12)
H32A H -0.3531 1.2522 0.2418
C30A C -0.2144(2) 1.09646(13) 0.35164(12)
C31A C -0.1204(2) 1.02011(13) 0.40674(12)
H33A H -0.0559 1.0074 0.3678
H34A H -0.1728 0.9650 0.4390
C32A C -0.0441(2) 1.04098(13) 0.47134(13)
H35A H 0.0129 1.0939 0.4394
H36A H -0.1077 1.0563 0.5089
O9A O 1.82267(12) 1.07112(9) -0.12203(8)
O10A O 1.85923(13) 1.03677(9) 0.01728(9)
C41A C 1.78349(16) 1.04372(10) -0.04254(11)
C42A C 1.63655(16) 1.02132(11) -0.02041(10)
C43A C 1.54359(17) 1.05243(12) -0.08641(11)
H41A H 1.5725 1.0877 -0.1444
C44A C 1.59177(17) 0.96883(12) 0.06615(11)
H42A H 1.6532 0.9479 0.1107
O11A O 1.36164(12) 0.44272(9) 1.02101(8)
O12A O 1.33055(13) 0.54945(10) 0.88601(9)
C45A C 1.28854(16) 0.49743(11) 0.96246(11)
C46A C 1.13892(16) 0.49918(10) 0.98216(10)
C47A C 1.05083(17) 0.53734(12) 0.91364(11)
H43A H 1.0846 0.5621 0.8556
C48A C 1.08723(17) 0.46134(12) 1.06862(11)
H44A H 1.1455 0.4350 1.1148
Cd1A Cd -0.953420(11) 1.061210(8) 0.855120(7)
Cd2A Cd -0.548300(12) 1.418980(8) 0.150830(7)
O5A O -0.78104(13) 1.08521(8) 0.73717(8)
O6A O -0.97668(14) 1.15709(10) 0.70326(8)
O7A O -0.73008(14) 1.33050(9) 0.26232(8)
O8A O -0.54277(14) 1.36798(10) 0.30345(8)
C33A C -0.85886(19) 1.14288(11) 0.68217(11)
C34A C -0.80642(19) 1.19591(11) 0.58899(11)
C35A C -0.89572(19) 1.23320(13) 0.52135(12)
H37A H -0.9883 1.2284 0.5342
C36A C -0.84774(19) 1.27766(13) 0.43457(11)
H38A H -0.9080 1.3004 0.3893
C37A C -0.70936(19) 1.28819(11) 0.41535(11)
C38A C -0.62025(19) 1.25462(13) 0.48310(11)
H39A H -0.5281 1.2642 0.4706
C39A C -0.66807(19) 1.20669(12) 0.56975(11)
H40A H -0.6077 1.1819 0.6148
C40A C -0.65723(19) 1.33204(11) 0.32094(11)
Cd1_2 Cd 1.953420(11) 0.938790(8) 0.144880(7)
Cd1A_2 Cd 0.046580(11) 0.061210(8) 0.855120(7)
Cd1A_3 Cd 1.046580(11) 1.061210(8) -0.144880(7)
Cd1A_4 Cd 2.046580(11) 1.061210(8) -0.144880(7)
Cd1A_5 Cd 2.046580(11) 1.061210(8) 0.855120(7)
Cd2_2 Cd 1.548300(12) 0.581020(8) 0.849170(7)
Cd2A_2 Cd 0.451700(12) 0.418980(8) 1.150830(7)
Cd2A_3 Cd 1.451700(12) 0.418980(8) 0.150830(7)
Cd2A_4 Cd 1.451700(12) 0.418980(8) 1.150830(7)
O9A_2 O -1.17733(12) 1.07112(9) 0.87797(8)
O10_2 O -0.85923(13) 0.96323(9) 0.98272(9)
O10A_2 O 0.85923(13) 1.03677(9) 0.01728(9)
O11A_2 O -0.63836(12) 1.44272(9) 0.02101(8)
O12_2 O -0.33055(13) 1.45055(10) 0.11399(9)
O12A_2 O 0.33055(13) 0.54945(10) 0.88601(9)
N1A_2 N -0.86400(15) 1.18768(10) 0.86618(10)
N3A_2 N -0.99845(15) 0.92580(10) 0.84284(10)
N5A_2 N -0.64464(16) 1.55508(10) 0.14323(10)
O13 O 0.2515(3) 0.76580(16) 0.34913(16)
H45 H 0.1833 0.7995 0.3270
H46 H 0.3061 0.7656 0.3085
O14 O 0.2442(3) 0.72676(16) 0.53570(17)
H47 H 0.2650 0.7596 0.4818
H48 H 0.2448 0.7606 0.5630
O15 O 0.7318(3) 0.44232(15) 0.31512(18)
H49 H 0.7766 0.4311 0.3568
H50 H 0.6593 0.4145 0.3515
loop_
_geom_bond_atom_site_label_1
_geom_bond_atom_site_label_2
_geom_bond_site_symmetry_1
_geom_bond_site_symmetry_2
Cd1 O5 1_555 1_555
Cd2 O7 1_555 1_555
O1 C14 1_555 1_555
O2 C6 1_555 1_555
O3 C22 1_555 1_555
O4 C30 1_555 1_555
O5 C33 1_555 1_555
O6 Cd1 1_555 1_555
O7 C40 1_555 1_555
O8 Cd2 1_555 1_555
O9 Cd1 1_555 1_555
O10 C41 1_555 1_555
O11 Cd2 1_555 1_555
O12 C45 1_555 1_555
N1 Cd1 1_555 1_555
N2 H1 1_555 1_555
N3 Cd1 1_555 1_555
N4 H2 1_555 1_555
N5 Cd2 1_555 1_555
N6 H3 1_555 1_555
N7 Cd2 1_555 1_555
N8 H4 1_555 1_555
C1 N3 1_555 1_555
H5 C1 1_555 1_555
C2 C1 1_555 1_555
H6 C2 1_555 1_555
C3 C2 1_555 1_555
H7 C3 1_555 1_555
C4 N4 1_555 1_555
C5 N3 1_555 1_555
H8 C5 1_555 1_555
C6 N4 1_555 1_555
C7 C6 1_555 1_555
H9 C7 1_555 1_555
H10 C7 1_555 1_555
C8 C7 1_555 1_555
H11 C8 1_555 1_555
H12 C8 1_555 1_555
C9 N1 1_555 1_555
H13 C9 1_555 1_555
C10 C9 1_555 1_555
H14 C10 1_555 1_555
C11 C10 1_555 1_555
H15 C11 1_555 1_555
C12 N2 1_555 1_555
C13 N1 1_555 1_555
H16 C13 1_555 1_555
C14 N2 1_555 1_555
C15 C14 1_555 1_555
H17 C15 1_555 1_555
H18 C15 1_555 1_555
C16 C15 1_555 1_555
H19 C16 1_555 1_555
H20 C16 1_555 1_555
C17 N5 1_555 1_555
H21 C17 1_555 1_555
C18 C17 1_555 1_555
H22 C18 1_555 1_555
C19 C18 1_555 1_555
H23 C19 1_555 1_555
C20 N6 1_555 1_555
C21 N5 1_555 1_555
H24 C21 1_555 1_555
C22 N6 1_555 1_555
C23 C22 1_555 1_555
H25 C23 1_555 1_555
H26 C23 1_555 1_555
C24 C23 1_555 1_555
H27 C24 1_555 1_555
H28 C24 1_555 1_555
C25 N7 1_555 1_555
H29 C25 1_555 1_555
C26 C25 1_555 1_555
H30 C26 1_555 1_555
C27 C26 1_555 1_555
H31 C27 1_555 1_555
C28 N8 1_555 1_555
C29 N7 1_555 1_555
H32 C29 1_555 1_555
C30 N8 1_555 1_555
C31 C30 1_555 1_555
H33 C31 1_555 1_555
H34 C31 1_555 1_555
C32 C31 1_555 1_555
H35 C32 1_555 1_555
H36 C32 1_555 1_555
C33 O6 1_555 1_555
C34 C33 1_555 1_555
C35 C34 1_555 1_555
H37 C35 1_555 1_555
C36 C35 1_555 1_555
H38 C36 1_555 1_555
C37 C36 1_555 1_555
C38 C37 1_555 1_555
H39 C38 1_555 1_555
C39 C34 1_555 1_555
H40 C39 1_555 1_555
C40 O8 1_555 1_555
C41 O9 1_555 1_555
C42 C41 1_555 1_555
C43 C42 1_555 1_555
H41 C43 1_555 1_555
C44 C42 1_555 1_555
H42 C44 1_555 1_555
C45 O11 1_555 1_555
C46 C45 1_555 1_555
C47 C46 1_555 1_555
H43 C47 1_555 1_555
C48 C46 1_555 1_555
H44 C48 1_555 1_555
O13 H45 1_555 1_555
H46 O13 1_555 1_555
O14 H47 1_555 1_555
H48 O14 1_555 1_555
O15 H49 1_555 1_555
H50 O15 1_555 1_555
O1A C14A 1_555 1_555
N1A C9A 1_555 1_555
N2A H1A 1_555 1_555
C9A H13A 1_555 1_555
C10A C9A 1_555 1_555
H14A C10A 1_555 1_555
C11A C10A 1_555 1_555
H15A C11A 1_555 1_555
C12A N2A 1_555 1_555
C13A N1A 1_555 1_555
H16A C13A 1_555 1_555
C14A N2A 1_555 1_555
C15A C14A 1_555 1_555
H17A C15A 1_555 1_555
H18A C15A 1_555 1_555
C16A C16 1_555 1_555
H19A C16A 1_555 1_555
H20A C16A 1_555 1_555
O2A C6A 1_555 1_555
N3A C1A 1_555 1_555
N4A H2A 1_555 1_555
C1A H5A 1_555 1_555
C2A C1A 1_555 1_555
H6A C2A 1_555 1_555
C3A C2A 1_555 1_555
H7A C3A 1_555 1_555
C4A N4A 1_555 1_555
C5A N3A 1_555 1_555
H8A C5A 1_555 1_555
C6A N4A 1_555 1_555
C7A C6A 1_555 1_555
H9A C7A 1_555 1_555
H10A C7A 1_555 1_555
C8A C8 1_555 1_555
H11A C8A 1_555 1_555
H12A C8A 1_555 1_555
O3A C22A 1_555 1_555
N5A C17A 1_555 1_555
N6A H3A 1_555 1_555
C17A H21A 1_555 1_555
C18A C17A 1_555 1_555
H22A C18A 1_555 1_555
C19A C18A 1_555 1_555
H23A C19A 1_555 1_555
C20A N6A 1_555 1_555
C21A N5A 1_555 1_555
H24A C21A 1_555 1_555
C22A N6A 1_555 1_555
C23A C22A 1_555 1_555
H25A C23A 1_555 1_555
H26A C23A 1_555 1_555
C24A C24 1_555 1_555
H27A C24A 1_555 1_555
H28A C24A 1_555 1_555
O4A C30A 1_555 1_555
N7A C25A 1_555 1_555
N8A H4A 1_555 1_555
C25A H29A 1_555 1_555
C26A C25A 1_555 1_555
H30A C26A 1_555 1_555
C27A C26A 1_555 1_555
H31A C27A 1_555 1_555
C28A N8A 1_555 1_555
C29A N7A 1_555 1_555
H32A C29A 1_555 1_555
C30A N8A 1_555 1_555
C31A C30A 1_555 1_555
H33A C31A 1_555 1_555
H34A C31A 1_555 1_555
C32A C32 1_555 1_555
H35A C32A 1_555 1_555
H36A C32A 1_555 1_555
O9A C41A 1_555 1_555
O10A C41A 1_555 1_555
C41A C42A 1_555 1_555
C42A C43A 1_555 1_555
C43A C44 1_555 1_555
H41A C43A 1_555 1_555
C44A C43 1_555 1_555
H42A C44A 1_555 1_555
O11A C45A 1_555 1_555
O12A C45A 1_555 1_555
C45A C46A 1_555 1_555
C46A C47A 1_555 1_555
C47A C48 1_555 1_555
H43A C47A 1_555 1_555
C48A C47 1_555 1_555
H44A C48A 1_555 1_555
Cd1A O5A 1_555 1_555
Cd2A N7A 1_555 1_555
O5A C33A 1_555 1_555
O6A Cd1A 1_555 1_555
O7A Cd2A 1_555 1_555
O8A Cd2A 1_555 1_555
C33A O6A 1_555 1_555
C34A C33A 1_555 1_555
C35A C34A 1_555 1_555
H37A C35A 1_555 1_555
C36A C35A 1_555 1_555
H38A C36A 1_555 1_555
C37A C36A 1_555 1_555
C38A C37A 1_555 1_555
H39A C38A 1_555 1_555
C39A C34A 1_555 1_555
H40A C39A 1_555 1_555
C40A O7A 1_555 1_555
Cd1_2 O10A 1_555 1_555
Cd1A_2 N1A 1_555 1_555
Cd1A_3 O10 1_555 1_555
Cd1A_4 O9A 1_555 1_555
Cd1A_5 N3A 1_555 1_555
Cd2_2 O12A 1_555 1_555
Cd2A_2 O12 1_555 1_555
Cd2A_3 N5A 1_555 1_555
Cd2A_4 O11A 1_555 1_555
O9A_2 Cd1A 1_555 1_555
O10_2 Cd1A 1_555 1_555
O10A_2 Cd1 1_555 1_555
O11A_2 Cd2A 1_555 1_555
O12_2 Cd2A 1_555 1_555
O12A_2 Cd2 1_555 1_555
N1A_2 Cd1A 1_555 1_555
N3A_2 Cd1A 1_555 1_555
N5A_2 Cd2A 1_555 1_555
C3 C4 1_555 1_555
C4 C5 1_555 1_555
C11 C12 1_555 1_555
C12 C13 1_555 1_555
C19 C20 1_555 1_555
C20 C21 1_555 1_555
C27 C28 1_555 1_555
C28 C29 1_555 1_555
C37 C40 1_555 1_555
C38 C39 1_555 1_555
C11A C12A 1_555 1_555
C12A C13A 1_555 1_555
C15A C16A 1_555 1_555
C3A C4A 1_555 1_555
C4A C5A 1_555 1_555
C7A C8A 1_555 1_555
C19A C20A 1_555 1_555
C20A C21A 1_555 1_555
C23A C24A 1_555 1_555
C27A C28A 1_555 1_555
C28A C29A 1_555 1_555
C31A C32A 1_555 1_555
C42A C44A 1_555 1_555
C46A C48A 1_555 1_555
O8A C40A 1_555 1_555
C37A C40A 1_555 1_555
C38A C39A 1_555 1_555

#END
