
#######################################################################
#
#                 Cambridge Crystallographic Data Centre
#                                CCDC 
#
#######################################################################
#
# If this CIF has been generated from an entry in the Cambridge 
# Structural Database, then it will include bibliographic, chemical, 
# crystal, experimental, refinement or atomic coordinate data resulting 
# from the CCDC's data processing and validation procedures.
#
#######################################################################

data_ZERWAW
_symmetry_cell_setting           triclinic
_symmetry_space_group_name_H-M   'P -1'
_symmetry_Int_Tables_number      2
_space_group_name_Hall           '-P 1'
loop_
_symmetry_equiv_pos_site_id
_symmetry_equiv_pos_as_xyz
1 x,y,z
2 -x,-y,-z
_cell_length_a                   10.8955(16)
_cell_length_b                   11.1843(15)
_cell_length_c                   11.4108(17)
_cell_angle_alpha                109.354(10)
_cell_angle_beta                 91.874(11)
_cell_angle_gamma                112.591(11)
_cell_volume                     1190.65
loop_
_atom_site_label
_atom_site_type_symbol
_atom_site_fract_x
_atom_site_fract_y
_atom_site_fract_z
Zn1 Zn 0.77145(3) 0.78332(3) -0.12020(3)
O1 O 0.3379(2) 0.3752(2) -0.2575(2)
O2 O 0.4149(3) -0.0838(3) -0.2584(3)
O3 O 0.8568(2) 0.96959(19) -0.12222(19)
O4 O 0.7093(2) 0.8847(2) -0.29785(18)
O5 O 1.14118(18) 1.2313(2) -0.02162(17)
O6 O 0.97979(19) 1.2525(2) 0.08575(18)
N1 N 0.7165(2) 0.6124(2) -0.2842(2)
N2 N 0.4019(2) 0.2974(2) -0.4447(2)
H1 H 0.3745 0.2319 -0.5183
N3 N 0.2947(2) -0.1705(3) -0.1249(2)
H2 H 0.2193 -0.1858 -0.0983
N4 N 0.5890(2) -0.2399(2) -0.0608(2)
C1 C 0.7922(3) 0.5996(3) -0.3727(3)
H3 H 0.8802 0.6672 -0.3567
C2 C 0.7443(3) 0.4891(3) -0.4874(3)
H4 H 0.7990 0.4830 -0.5480
C3 C 0.6140(3) 0.3878(3) -0.5111(3)
H5 H 0.5803 0.3122 -0.5878
C4 C 0.5343(3) 0.3994(3) -0.4201(2)
C5 C 0.5900(3) 0.5143(3) -0.3074(3)
H6 H 0.5372 0.5235 -0.2454
C6 C 0.3118(3) 0.2906(3) -0.3645(3)
C7 C 0.1752(3) 0.1673(3) -0.4179(3)
H7 H 0.1760 0.1086 -0.5021
H8 H 0.1061 0.2006 -0.4244
C8 C 0.1414(3) 0.0820(3) -0.3342(3)
H9 H 0.1414 0.1417 -0.2502
H10 H 0.0509 0.0081 -0.3676
C9 C 0.2390(3) 0.0177(3) -0.3242(3)
H11 H 0.2368 -0.0448 -0.4077
H12 H 0.3300 0.0911 -0.2932
C10 C 0.2060(3) -0.0625(3) -0.2373(3)
H13 H 0.1218 -0.1451 -0.2757
H14 H 0.1928 -0.0049 -0.1584
C11 C 0.3158(3) -0.1058(3) -0.2097(3)
C12 C 0.3810(3) -0.2150(3) -0.0762(3)
C13 C 0.3412(3) -0.2810(3) 0.0075(3)
H15 H 0.2571 -0.2963 0.0308
C14 C 0.4260(3) -0.3243(3) 0.0567(3)
H16 H 0.3997 -0.3683 0.1138
C15 C 0.5494(3) -0.3025(3) 0.0213(3)
H17 H 0.6065 -0.3317 0.0551
C16 C 0.5075(3) -0.1965(3) -0.1082(3)
H18 H 0.5364 -0.1522 -0.1647
C17 C 0.8006(3) 0.9837(3) -0.2131(2)
C18 C 0.8490(3) 1.1276(3) -0.2148(2)
C19 C 0.7847(3) 1.1481(3) -0.3087(3)
H19 H 0.7116 1.0728 -0.3669
C20 C 0.8261(4) 1.2763(4) -0.3177(3)
H20 H 0.7808 1.2882 -0.3805
C21 C 0.9357(4) 1.3877(4) -0.2326(4)
H21 H 0.9653 1.4749 -0.2388
C22 C 1.0017(3) 1.3706(3) -0.1385(3)
H22 H 1.0768 1.4460 -0.0829
C23 C 0.9575(3) 1.2422(3) -0.1257(2)
C24 C 1.0276(2) 1.2382(2) -0.0115(2)
Zn1_2 Zn 0.77145(3) -0.21668(3) -0.12020(3)
Zn1A Zn 1.22855(3) 1.21668(3) 0.12020(3)
O5A O 0.85882(18) 0.7687(2) 0.02162(17)
N4_2 N 0.5890(2) 0.7601(2) -0.0608(2)
loop_
_geom_bond_atom_site_label_1
_geom_bond_atom_site_label_2
_geom_bond_site_symmetry_1
_geom_bond_site_symmetry_2
Zn1 O3 1_555 1_555
O1 C6 1_555 1_555
O2 C11 1_555 1_555
O3 C17 1_555 1_555
O4 C17 1_555 1_555
O5 C24 1_555 1_555
O6 C24 1_555 1_555
N1 Zn1 1_555 1_555
N2 H1 1_555 1_555
N3 H2 1_555 1_555
N4 C15 1_555 1_555
C1 N1 1_555 1_555
H3 C1 1_555 1_555
C2 C1 1_555 1_555
H4 C2 1_555 1_555
C3 C2 1_555 1_555
H5 C3 1_555 1_555
C4 N2 1_555 1_555
C5 N1 1_555 1_555
H6 C5 1_555 1_555
C6 N2 1_555 1_555
C7 C6 1_555 1_555
H7 C7 1_555 1_555
H8 C7 1_555 1_555
C8 C7 1_555 1_555
H9 C8 1_555 1_555
H10 C8 1_555 1_555
C9 C8 1_555 1_555
H11 C9 1_555 1_555
H12 C9 1_555 1_555
C10 C9 1_555 1_555
H13 C10 1_555 1_555
H14 C10 1_555 1_555
C11 N3 1_555 1_555
C12 N3 1_555 1_555
C13 C12 1_555 1_555
H15 C13 1_555 1_555
C14 C13 1_555 1_555
H16 C14 1_555 1_555
C15 C14 1_555 1_555
H17 C15 1_555 1_555
C16 N4 1_555 1_555
H18 C16 1_555 1_555
C17 C18 1_555 1_555
C18 C19 1_555 1_555
C19 H19 1_555 1_555
C20 C19 1_555 1_555
H20 C20 1_555 1_555
C21 C20 1_555 1_555
H21 C21 1_555 1_555
C22 C21 1_555 1_555
H22 C22 1_555 1_555
C23 C18 1_555 1_555
C24 C23 1_555 1_555
Zn1_2 N4 1_555 1_555
Zn1A O5 1_555 1_555
O5A Zn1 1_555 1_555
N4_2 Zn1 1_555 1_555
C3 C4 1_555 1_555
C4 C5 1_555 1_555
C10 C11 1_555 1_555
C12 C16 1_555 1_555
C22 C23 1_555 1_555

#END
