
#######################################################################
#
#                 Cambridge Crystallographic Data Centre
#                                CCDC 
#
#######################################################################
#
# If this CIF has been generated from an entry in the Cambridge 
# Structural Database, then it will include bibliographic, chemical, 
# crystal, experimental, refinement or atomic coordinate data resulting 
# from the CCDC's data processing and validation procedures.
#
#######################################################################

data_ZESJEO
_symmetry_cell_setting           monoclinic
_symmetry_space_group_name_H-M   'P 21/c'
_symmetry_Int_Tables_number      14
_space_group_name_Hall           '-P 2ybc'
loop_
_symmetry_equiv_pos_site_id
_symmetry_equiv_pos_as_xyz
1 x,y,z
2 -x,1/2+y,1/2-z
3 -x,-y,-z
4 x,1/2-y,1/2+z
_cell_length_a                   21.6802(12)
_cell_length_b                   10.7379(7)
_cell_length_c                   16.6045(9)
_cell_angle_alpha                90
_cell_angle_beta                 92.798(7)
_cell_angle_gamma                90
_cell_volume                     3860.92
loop_
_atom_site_label
_atom_site_type_symbol
_atom_site_fract_x
_atom_site_fract_y
_atom_site_fract_z
Mn1 Mn 0.0000 0.5000 0.5000
Mn2 Mn 0.134189(19) 0.45338(4) 0.38408(3)
Mn3 Mn 0.36380(2) 0.06900(4) 0.37475(3)
Mn4 Mn 0.5000 0.0000 0.5000
N1 N 0.09564(11) 0.6513(2) 0.40040(14)
N2 N 0.04537(11) 0.6719(2) 0.44404(15)
C1 C 0.02274(16) 0.7860(3) 0.4493(2)
H1 H -0.0127 0.7984 0.4798
C2 C 0.04862(19) 0.8892(3) 0.4121(2)
H2 H 0.0315 0.9701 0.4167
C3 C 0.09952(19) 0.8684(3) 0.3689(2)
H3 H 0.1193 0.9347 0.3425
C4 C 0.12152(16) 0.7473(3) 0.3646(2)
H4 H 0.1569 0.7323 0.3344
N3 N 0.14037(11) 0.4411(2) 0.52664(14)
N4 N 0.08888(11) 0.4502(2) 0.56882(14)
C5 C 0.09119(16) 0.4235(3) 0.64651(18)
H5 H 0.0545 0.4318 0.6751
C6 C 0.14485(17) 0.3836(4) 0.6887(2)
H6 H 0.1449 0.3633 0.7443
C7 C 0.19741(16) 0.3750(3) 0.6464(2)
H7 H 0.2355 0.3493 0.6719
C8 C 0.19308(14) 0.4053(3) 0.56485(19)
H8 H 0.2293 0.4002 0.5350
N5 N 0.43562(11) 0.2219(2) 0.40775(14)
N6 N 0.48851(11) 0.1939(2) 0.45040(15)
C9 C 0.53181(15) 0.2797(3) 0.4615(2)
H9 H 0.5684 0.2583 0.4922
C10 C 0.52647(16) 0.4001(3) 0.4302(2)
H10 H 0.5586 0.4596 0.4383
C11 C 0.47300(17) 0.4285(3) 0.3876(2)
H11 H 0.4666 0.5087 0.3645
C12 C 0.42789(15) 0.3359(3) 0.3788(2)
H12 H 0.3899 0.3557 0.3507
N7 N 0.59253(11) -0.0130(2) 0.43882(15)
N8 N 0.64429(11) -0.0361(2) 0.48532(15)
C13 C 0.69812(15) -0.0448(3) 0.4502(2)
H13 H 0.7340 -0.0625 0.4832
C14 C 0.70462(17) -0.0293(3) 0.3679(2)
H14 H 0.7439 -0.0352 0.3451
C15 C 0.65233(17) -0.0052(4) 0.3211(2)
H15 H 0.6538 0.0066 0.2645
C16 C 0.59687(16) 0.0012(3) 0.35972(19)
H16 H 0.5601 0.0166 0.3278
S1 S -0.01330(4) 0.19344(9) 0.30730(6)
C17 C 0.01431(13) 0.3098(3) 0.35976(19)
N9 N 0.03327(11) 0.3901(2) 0.39771(14)
S2 S 0.12582(4) 0.43692(9) 0.08858(5)
C18 C 0.12437(14) 0.4514(3) 0.18663(19)
N10 N 0.12418(14) 0.4607(3) 0.25653(16)
S3 S 0.34477(4) 0.62743(8) 0.38689(6)
C19 C 0.27567(14) 0.5662(3) 0.39133(17)
N11 N 0.22688(12) 0.5234(3) 0.39333(18)
S4 S 0.16034(4) 0.21184(7) 0.39664(5)
C20 C 0.23528(15) 0.2083(3) 0.38525(18)
N12 N 0.28837(14) 0.2018(3) 0.3783(2)
S5 S 0.36356(4) 0.15461(8) 0.08467(5)
C21 C 0.37008(15) 0.1214(3) 0.18080(19)
N13 N 0.37365(14) 0.0964(3) 0.24878(17)
S6 S 0.47414(6) -0.24583(9) 0.27922(7)
C22 C 0.45690(15) -0.1399(3) 0.3452(2)
N14 N 0.44669(10) -0.0708(2) 0.38829(15)
O1 O 0.29854(11) -0.0851(2) 0.36430(14)
H17 H 0.3116 -0.1563 0.3772
H18 H 0.2805 -0.1025 0.3198
Mn2B Mn -0.134189(19) 0.54662(4) 0.61592(3)
Mn3B Mn -0.36380(2) 0.93100(4) 0.62525(3)
N1B N -0.09564(11) 0.3487(2) 0.59960(14)
N2B N -0.04537(11) 0.3281(2) 0.55596(15)
C1B C -0.02274(16) 0.2140(3) 0.5507(2)
H1B H 0.0127 0.2016 0.5202
C2B C -0.04862(19) 0.1108(3) 0.5879(2)
H2B H -0.0315 0.0299 0.5833
C3B C -0.09952(19) 0.1316(3) 0.6311(2)
H3B H -0.1193 0.0653 0.6575
C4B C -0.12152(16) 0.2527(3) 0.6354(2)
H4B H -0.1569 0.2677 0.6656
N3B N -0.14037(11) 0.5589(2) 0.47336(14)
N4B N -0.08888(11) 0.5498(2) 0.43118(14)
C5B C -0.09119(16) 0.5765(3) 0.35349(18)
H5B H -0.0545 0.5682 0.3249
C6B C -0.14485(17) 0.6164(4) 0.3113(2)
H6B H -0.1449 0.6367 0.2557
C7B C -0.19741(16) 0.6250(3) 0.3536(2)
H7B H -0.2355 0.6507 0.3281
C8B C -0.19308(14) 0.5947(3) 0.43515(19)
H8B H -0.2293 0.5998 0.4650
N5B N -0.43562(11) 0.7781(2) 0.59225(14)
N6B N -0.48851(11) 0.8061(2) 0.54960(15)
C9B C -0.53181(15) 0.7203(3) 0.5385(2)
H9B H -0.5684 0.7417 0.5078
C10B C -0.52647(16) 0.5999(3) 0.5698(2)
H10B H -0.5586 0.5404 0.5617
C11B C -0.47300(17) 0.5715(3) 0.6124(2)
H11B H -0.4666 0.4913 0.6355
C12B C -0.42789(15) 0.6641(3) 0.6212(2)
H12B H -0.3899 0.6443 0.6493
S1B S 0.01330(4) 0.80656(9) 0.69270(6)
C17B C -0.01431(13) 0.6902(3) 0.64024(19)
N9B N -0.03327(11) 0.6099(2) 0.60229(14)
S2B S -0.12582(4) 0.56308(9) 0.91142(5)
C18B C -0.12437(14) 0.5486(3) 0.81337(19)
N10B N -0.12418(14) 0.5393(3) 0.74347(16)
S3B S -0.34477(4) 0.37257(8) 0.61311(6)
C19B C -0.27567(14) 0.4338(3) 0.60867(17)
N11B N -0.22688(12) 0.4766(3) 0.60667(18)
S4B S -0.16034(4) 0.78816(7) 0.60336(5)
C20B C -0.23528(15) 0.7917(3) 0.61475(18)
N12B N -0.28837(14) 0.7982(3) 0.6217(2)
S5B S -0.36356(4) 0.84539(8) 0.91533(5)
C21B C -0.37008(15) 0.8786(3) 0.81920(19)
N13B N -0.37365(14) 0.9036(3) 0.75122(17)
S6B S -0.47414(6) 1.24583(9) 0.72078(7)
C22B C -0.45690(15) 1.1399(3) 0.6548(2)
N14B N -0.44669(10) 1.0708(2) 0.61171(15)
O1B O -0.29854(11) 1.0851(2) 0.63570(14)
H17B H -0.3116 1.1563 0.6228
H18B H -0.2805 1.1025 0.6802
N7B N 0.40747(11) 0.0130(2) 0.56118(15)
N8B N 0.35571(11) 0.0361(2) 0.51468(15)
C13B C 0.30188(15) 0.0448(3) 0.5498(2)
H13B H 0.2660 0.0625 0.5168
C14B C 0.29538(17) 0.0293(3) 0.6321(2)
H14B H 0.2561 0.0352 0.6549
C15B C 0.34767(17) 0.0052(4) 0.6789(2)
H15B H 0.3462 -0.0066 0.7355
C16B C 0.40313(16) -0.0012(3) 0.64028(19)
H16B H 0.4399 -0.0166 0.6722
Mn3B_2 Mn 0.63620(2) -0.06900(4) 0.62525(3)
Mn4_2 Mn -0.5000 1.0000 0.5000
N6B_2 N 0.51149(11) -0.1939(2) 0.54960(15)
N8_2 N -0.35571(11) 0.9639(2) 0.48532(15)
N14B_2 N 0.55331(10) 0.0708(2) 0.61171(15)
N15 N 0.25526(15) -0.1516(3) 0.21346(19)
N16 N 0.29349(19) -0.1612(4) 0.1546(3)
C23 C 0.2758(2) -0.2104(4) 0.0801(2)
H19 H 0.3040 -0.2157 0.0382
C24 C 0.2168(2) -0.2508(4) 0.0690(2)
H20 H 0.2022 -0.2858 0.0191
C25 C 0.1788(2) -0.2391(4) 0.1329(3)
H21 H 0.1374 -0.2676 0.1260
C26 C 0.19683(16) -0.1904(3) 0.2031(2)
H22 H 0.1690 -0.1832 0.2452
loop_
_geom_bond_atom_site_label_1
_geom_bond_atom_site_label_2
_geom_bond_site_symmetry_1
_geom_bond_site_symmetry_2
Mn1 N2 1_555 1_555
Mn2 N1 1_555 1_555
Mn3 N5 1_555 1_555
Mn4 N6 1_555 1_555
N1 N2 1_555 1_555
N2 C1 1_555 1_555
C1 H1 1_555 1_555
C2 C1 1_555 1_555
H2 C2 1_555 1_555
C3 C2 1_555 1_555
H3 C3 1_555 1_555
C4 N1 1_555 1_555
H4 C4 1_555 1_555
N3 Mn2 1_555 1_555
N4 Mn1 1_555 1_555
C5 N4 1_555 1_555
H5 C5 1_555 1_555
C6 C5 1_555 1_555
H6 C6 1_555 1_555
C7 C6 1_555 1_555
H7 C7 1_555 1_555
C8 N3 1_555 1_555
H8 C8 1_555 1_555
N5 N6 1_555 1_555
N6 C9 1_555 1_555
C9 H9 1_555 1_555
C10 C9 1_555 1_555
H10 C10 1_555 1_555
C11 C10 1_555 1_555
H11 C11 1_555 1_555
C12 N5 1_555 1_555
H12 C12 1_555 1_555
N7 Mn4 1_555 1_555
N8 N7 1_555 1_555
C13 N8 1_555 1_555
H13 C13 1_555 1_555
C14 C13 1_555 1_555
H14 C14 1_555 1_555
C15 C14 1_555 1_555
H15 C15 1_555 1_555
C16 N7 1_555 1_555
H16 C16 1_555 1_555
S1 C17 1_555 1_555
C17 N9 1_555 1_555
N9 Mn1 1_555 1_555
S2 C18 1_555 1_555
C18 N10 1_555 1_555
N10 Mn2 1_555 1_555
S3 C19 1_555 1_555
C19 N11 1_555 1_555
N11 Mn2 1_555 1_555
S4 Mn2 1_555 1_555
C20 S4 1_555 1_555
N12 Mn3 1_555 1_555
S5 C21 1_555 1_555
C21 N13 1_555 1_555
N13 Mn3 1_555 1_555
S6 C22 1_555 1_555
C22 N14 1_555 1_555
N14 Mn3 1_555 1_555
O1 Mn3 1_555 1_555
H17 O1 1_555 1_555
H18 O1 1_555 1_555
N15 N16 1_555 1_555
N16 C23 1_555 1_555
C23 H19 1_555 1_555
C24 C23 1_555 1_555
H20 C24 1_555 1_555
C25 C24 1_555 1_555
H21 C25 1_555 1_555
C26 N15 1_555 1_555
H22 C26 1_555 1_555
Mn2B N1B 1_555 1_555
Mn3B N5B 1_555 1_555
N1B N2B 1_555 1_555
N2B Mn1 1_555 1_555
C1B N2B 1_555 1_555
H1B C1B 1_555 1_555
C2B C1B 1_555 1_555
H2B C2B 1_555 1_555
C3B C2B 1_555 1_555
H3B C3B 1_555 1_555
C4B N1B 1_555 1_555
H4B C4B 1_555 1_555
N3B Mn2B 1_555 1_555
N4B Mn1 1_555 1_555
C5B N4B 1_555 1_555
H5B C5B 1_555 1_555
C6B C5B 1_555 1_555
H6B C6B 1_555 1_555
C7B C6B 1_555 1_555
H7B C7B 1_555 1_555
C8B N3B 1_555 1_555
H8B C8B 1_555 1_555
N5B N6B 1_555 1_555
N6B C9B 1_555 1_555
C9B H9B 1_555 1_555
C10B C9B 1_555 1_555
H10B C10B 1_555 1_555
C11B C10B 1_555 1_555
H11B C11B 1_555 1_555
C12B N5B 1_555 1_555
H12B C12B 1_555 1_555
S1B C17B 1_555 1_555
C17B N9B 1_555 1_555
N9B Mn1 1_555 1_555
S2B C18B 1_555 1_555
C18B N10B 1_555 1_555
N10B Mn2B 1_555 1_555
S3B C19B 1_555 1_555
C19B N11B 1_555 1_555
N11B Mn2B 1_555 1_555
S4B Mn2B 1_555 1_555
C20B S4B 1_555 1_555
N12B Mn3B 1_555 1_555
S5B C21B 1_555 1_555
C21B N13B 1_555 1_555
N13B Mn3B 1_555 1_555
S6B C22B 1_555 1_555
C22B N14B 1_555 1_555
N14B Mn3B 1_555 1_555
O1B Mn3B 1_555 1_555
H17B O1B 1_555 1_555
H18B O1B 1_555 1_555
N7B Mn4 1_555 1_555
N8B Mn3 1_555 1_555
C13B N8B 1_555 1_555
H13B C13B 1_555 1_555
C14B C13B 1_555 1_555
H14B C14B 1_555 1_555
C15B C14B 1_555 1_555
H15B C15B 1_555 1_555
C16B N7B 1_555 1_555
H16B C16B 1_555 1_555
Mn3B_2 N8 1_555 1_555
Mn4_2 N6B 1_555 1_555
N6B_2 Mn4 1_555 1_555
N8_2 Mn3B 1_555 1_555
N14B_2 Mn4 1_555 1_555
Mn2 N9 1_555 1_555
Mn4 N14 1_555 1_555
C3 C4 1_555 1_555
N3 N4 1_555 1_555
C7 C8 1_555 1_555
C11 C12 1_555 1_555
C15 C16 1_555 1_555
C20 N12 1_555 1_555
C25 C26 1_555 1_555
Mn2B N9B 1_555 1_555
C3B C4B 1_555 1_555
N3B N4B 1_555 1_555
C7B C8B 1_555 1_555
C11B C12B 1_555 1_555
C20B N12B 1_555 1_555
N14B Mn4_2 1_555 1_555
N7B N8B 1_555 1_555
C15B C16B 1_555 1_555
Mn3B_2 N14B_2 1_555 1_555

#END
