
#######################################################################
#
#                 Cambridge Crystallographic Data Centre
#                                CCDC 
#
#######################################################################
#
# If this CIF has been generated from an entry in the Cambridge 
# Structural Database, then it will include bibliographic, chemical, 
# crystal, experimental, refinement or atomic coordinate data resulting 
# from the CCDC's data processing and validation procedures.
#
#######################################################################

data_ZESMIV
_symmetry_cell_setting           monoclinic
_symmetry_space_group_name_H-M   'C 2/c'
_symmetry_Int_Tables_number      15
_space_group_name_Hall           '-C 2yn'
loop_
_symmetry_equiv_pos_site_id
_symmetry_equiv_pos_as_xyz
1 x,y,z
2 -x,y,1/2-z
3 1/2+x,1/2+y,z
4 1/2-x,1/2+y,1/2-z
5 -x,-y,-z
6 x,-y,1/2+z
7 1/2-x,1/2-y,-z
8 1/2+x,1/2-y,1/2+z
_cell_length_a                   28.2602(11)
_cell_length_b                   6.9089(3)
_cell_length_c                   30.2153(10)
_cell_angle_alpha                90
_cell_angle_beta                 99.598(4)
_cell_angle_gamma                90
_cell_volume                     5816.86
loop_
_atom_site_label
_atom_site_type_symbol
_atom_site_fract_x
_atom_site_fract_y
_atom_site_fract_z
N1 N 0.1745(3) 0.8237(14) 0.0823(3)
N2 N 0.1686(3) 0.7354(13) 0.2232(3)
C1 C 0.1890(4) 0.7207(16) 0.0498(3)
C2 C 0.1277(4) 0.8539(17) -0.0059(3)
O1 O 0.0496(4) 0.5763(16) 0.4856(3)
C3 C 0.1026(4) 0.8699(17) -0.0529(3)
C4 C 0.2325(4) 0.5952(17) 0.0647(3)
C5 C 0.1333(4) 0.6108(17) 0.2207(3)
C6 C 0.1379(4) 0.9426(16) 0.0714(3)
C7 C 0.1194(4) 0.6844(17) 0.2948(4)
C8 C 0.0978(4) 0.6390(18) 0.4134(4)
H1 H 0.117(4) 0.667(18) 0.444(4)
C9 C 0.1664(4) 0.7327(17) 0.0052(4)
H2 H 0.181(4) 0.617(18) -0.010(4)
C10 C 0.2220(4) 0.9760(18) 0.2602(3)
C11 C 0.0948(4) 0.6510(17) 0.3334(3)
C12 C 0.0553(4) 0.8870(17) -0.1411(3)
C13 C 0.1128(4) 0.9702(17) 0.0284(3)
H3 H 0.083(4) 1.062(17) 0.024(4)
C14 C 0.1034(4) 0.8470(17) -0.1325(3)
H4 H 0.1200 0.8249 -0.1561
C15 C 0.1276(4) 0.8394(17) -0.0884(3)
H5 H 0.1603 0.8139 -0.0827
C16 C 0.0294(4) 0.9163(17) -0.1064(3)
H6 H -0.0034 0.9414 -0.1124
C17 C 0.0537(4) 0.9071(16) -0.0625(3)
H7 H 0.0368 0.9263 -0.0390
C18 C 0.0232(4) 0.5800(17) 0.3639(4)
H8 H -0.0094 0.5516 0.3595
C19 C 0.1201(4) 0.6667(18) 0.3769(4)
H9 H 0.1526 0.6965 0.3813
C20 C 0.1810(4) 0.8362(17) 0.2611(3)
C21 C 0.0491(4) 0.5969(17) 0.4074(3)
O2 O -0.0191(3) 0.5237(19) 0.4393(3)
H10 H -0.0284 0.5033 0.4632
C22 C 0.0262(4) 0.5652(18) 0.4470(4)
C23 C 0.0461(4) 0.6056(17) 0.3274(4)
H11 H 0.0288 0.5924 0.2986
C24 C 0.1574(4) 0.8136(17) 0.2973(4)
H12 H 0.1670 0.8850 0.3233
C25 C 0.1076(4) 0.5783(17) 0.2545(3)
H13 H 0.0828 0.4881 0.2510
C26 C 0.1251(4) 0.5011(17) 0.1762(3)
O3 O 0.09040(5) 0.3846(3) 0.17017(2)
H14 H 0.0921 0.3166 0.1482
O4 O 0.153236(17) 0.53534(8) 0.14985(2)
O5 O 0.23675(10) 1.0678(5) 0.29606(5)
O6 O 0.23900(10) 0.9867(5) 0.22445(7)
O7 O 0.053386(17) 0.87780(8) -0.21976(3)
O8 O -0.014964(17) 0.92297(8) -0.19423(4)
H15 H -0.0269 0.8971 -0.2202
O9 O 0.09230(3) 1.17436(16) 0.10407(8)
O10 O 0.15080(3) 1.01673(17) 0.14919(8)
O11 O 0.250206(18) 0.50049(8) 0.03712(3)
O12 O 0.248116(19) 0.59558(9) 0.10716(3)
O13 O 0.258436(17) 1.04076(8) 0.13659(3)
H16 H 0.2561 1.0400 0.1072
H17 H 0.2477 1.1501 0.1446
C27 C 0.030606(17) 0.89536(8) -0.18887(4)
C28 C 0.12570(3) 1.05259(13) 0.11110(8)
Tb1 Tb 0.214056(17) 0.77874(8) 0.161005(14)
O5C O 0.26325(10) 0.5678(5) 0.20394(5)
Tb1C Tb 0.285944(17) 1.27874(8) 0.338995(14)
O14 O 0.27104(2) 0.11528(11) 0.05377(5)
H18 H 0.2495 0.2053 0.0596
H19 H 0.2745 0.2444 0.0394
loop_
_geom_bond_atom_site_label_1
_geom_bond_atom_site_label_2
_geom_bond_site_symmetry_1
_geom_bond_site_symmetry_2
N1 C1 1_555 1_555
N2 C5 1_555 1_555
C1 C4 1_555 1_555
C2 C3 1_555 1_555
O1 C22 1_555 1_555
C3 C15 1_555 1_555
C4 O11 1_555 1_555
C5 C25 1_555 1_555
C6 N1 1_555 1_555
C7 C11 1_555 1_555
C8 H1 1_555 1_555
C9 C1 1_555 1_555
H2 C9 1_555 1_555
C10 C20 1_555 1_555
C11 C19 1_555 1_555
C12 C14 1_555 1_555
C13 C2 1_555 1_555
H3 C13 1_555 1_555
C14 H4 1_555 1_555
C15 C14 1_555 1_555
H5 C15 1_555 1_555
C16 C12 1_555 1_555
H6 C16 1_555 1_555
C17 C3 1_555 1_555
H7 C17 1_555 1_555
C18 H8 1_555 1_555
C19 C8 1_555 1_555
H9 C19 1_555 1_555
C20 N2 1_555 1_555
C21 C8 1_555 1_555
O2 H10 1_555 1_555
C22 C21 1_555 1_555
C23 C11 1_555 1_555
H11 C23 1_555 1_555
C24 C7 1_555 1_555
H12 C24 1_555 1_555
C25 C7 1_555 1_555
H13 C25 1_555 1_555
C26 C5 1_555 1_555
O3 C26 1_555 1_555
H14 O3 1_555 1_555
O4 C26 1_555 1_555
O5 C10 1_555 1_555
O6 C10 1_555 1_555
O7 C27 1_555 1_555
O8 H15 1_555 1_555
O9 C28 1_555 1_555
O10 C28 1_555 1_555
O12 C4 1_555 1_555
O13 H16 1_555 1_555
H17 O13 1_555 1_555
C27 C12 1_555 1_555
C28 C6 1_555 1_555
Tb1 N1 1_555 1_555
O14 H18 1_555 1_555
H19 O14 1_555 1_555
O5C Tb1 1_555 1_555
Tb1C O5 1_555 1_555
N2 Tb1 1_555 1_555
C2 C9 1_555 1_555
C6 C13 1_555 1_555
C16 C17 1_555 1_555
C18 C21 1_555 1_555
C18 C23 1_555 1_555
C20 C24 1_555 1_555
O2 C22 1_555 1_555
O4 Tb1 1_555 1_555
O6 Tb1 1_555 1_555
O8 C27 1_555 1_555
O10 Tb1 1_555 1_555
O12 Tb1 1_555 1_555
O13 Tb1 1_555 1_555

#END
