
#######################################################################
#
#                 Cambridge Crystallographic Data Centre
#                                CCDC 
#
#######################################################################
#
# If this CIF has been generated from an entry in the Cambridge 
# Structural Database, then it will include bibliographic, chemical, 
# crystal, experimental, refinement or atomic coordinate data resulting 
# from the CCDC's data processing and validation procedures.
#
#######################################################################

data_ZESMIV01
_symmetry_cell_setting           monoclinic
_symmetry_space_group_name_H-M   'C 2/c'
_symmetry_Int_Tables_number      15
_space_group_name_Hall           '-C 2yn'
loop_
_symmetry_equiv_pos_site_id
_symmetry_equiv_pos_as_xyz
1 x,y,z
2 -x,y,1/2-z
3 1/2+x,1/2+y,z
4 1/2-x,1/2+y,1/2-z
5 -x,-y,-z
6 x,-y,1/2+z
7 1/2-x,1/2-y,-z
8 1/2+x,1/2-y,1/2+z
_cell_length_a                   28.2870(14)
_cell_length_b                   6.8971(3)
_cell_length_c                   30.2116(14)
_cell_angle_alpha                90
_cell_angle_beta                 99.585(4)
_cell_angle_gamma                90
_cell_volume                     5811.95
loop_
_atom_site_label
_atom_site_type_symbol
_atom_site_fract_x
_atom_site_fract_y
_atom_site_fract_z
Tb1 Tb 0.214058(13) 0.77916(6) 0.160909(11)
O1 O 0.1529(2) 0.5370(10) 0.14927(19)
O2 O 0.1504(2) 1.0163(9) 0.14905(17)
N1 N 0.1687(2) 0.7363(10) 0.2232(2)
N2 N 0.1745(2) 0.8241(10) 0.08160(19)
O3 O 0.0922(2) 1.1745(9) 0.10413(19)
O4 O 0.2391(2) 0.9859(10) 0.22476(17)
O5 O 0.0494(3) 0.5749(14) 0.4857(2)
C1 C 0.1895(3) 0.7207(12) 0.0494(2)
O6 O -0.0151(3) 0.9232(14) -0.1948(2)
C2 C 0.1375(3) 0.9448(12) 0.0717(2)
C3 C 0.1023(3) 0.8711(12) -0.0531(2)
C4 C 0.1276(3) 0.8570(12) -0.0058(2)
C5 C 0.2329(3) 0.5948(13) 0.0650(3)
C6 C 0.1276(3) 0.8420(13) -0.0884(2)
H1 H 0.1603 0.8167 -0.0825
O7 O -0.0191(3) 0.5231(14) 0.4396(2)
C7 C 0.0974(3) 0.6381(13) 0.4133(3)
H2 H 0.1148 0.6472 0.4422
O8 O 0.2482(2) 0.5971(11) 0.10714(19)
C8 C 0.1333(3) 0.6094(12) 0.2203(2)
C9 C 0.1576(3) 0.8138(13) 0.2975(2)
H3 H 0.1671 0.8848 0.3236
O9 O 0.0900(2) 0.3843(10) 0.1697(2)
O10 O 0.2503(2) 0.5023(11) 0.03687(19)
C10 C 0.1199(3) 0.6825(12) 0.2947(3)
C11 C 0.1248(3) 0.5018(13) 0.1760(3)
C12 C 0.1131(3) 0.9681(12) 0.0285(2)
H4 H 0.0877 1.0550 0.0223
C13 C 0.2222(3) 0.9754(14) 0.2605(2)
C14 C 0.1038(3) 0.8508(13) -0.1325(3)
H5 H 0.1205 0.8315 -0.1561
C15 C 0.1809(3) 0.8380(13) 0.2610(2)
C16 C 0.0552(3) 0.8882(12) -0.1411(3)
C17 C 0.0458(3) 0.6070(13) 0.3275(3)
H6 H 0.0285 0.5951 0.2987
C18 C 0.1665(3) 0.7327(12) 0.0049(2)
H7 H 0.1770 0.6585 -0.0172
C19 C 0.0295(3) 0.9157(13) -0.1064(3)
H8 H -0.0033 0.9391 -0.1126
C20 C 0.0492(3) 0.5962(12) 0.4073(3)
C21 C 0.1201(3) 0.6666(13) 0.3770(3)
H9 H 0.1526 0.6965 0.3814
C22 C 0.0227(3) 0.5807(13) 0.3643(3)
H10 H -0.0099 0.5532 0.3602
C23 C 0.1258(3) 1.0531(12) 0.1115(2)
O11 O 0.0536(3) 0.8782(13) -0.2197(2)
O12 O 0.2366(3) 1.0669(13) 0.2960(2)
C24 C 0.1074(3) 0.5768(13) 0.2545(3)
H11 H 0.0824 0.4876 0.2511
C25 C 0.0947(3) 0.6510(12) 0.3334(3)
C26 C 0.0532(3) 0.9078(13) -0.0623(2)
H12 H 0.0363 0.9270 -0.0388
C27 C 0.0260(4) 0.5644(14) 0.4473(3)
C28 C 0.0306(4) 0.8961(13) -0.1887(3)
O13 O 0.2581(3) 1.0449(16) 0.1361(2)
Tb1C Tb 0.285942(13) 1.27916(6) 0.339091(11)
O12C O 0.2634(3) 0.5669(13) 0.2040(2)
O14 O 0.2714(3) 0.1168(12) 0.0536(2)
loop_
_geom_bond_atom_site_label_1
_geom_bond_atom_site_label_2
_geom_bond_site_symmetry_1
_geom_bond_site_symmetry_2
Tb1 O1 1_555 1_555
O1 C11 1_555 1_555
O2 Tb1 1_555 1_555
N1 Tb1 1_555 1_555
N2 Tb1 1_555 1_555
O3 C23 1_555 1_555
O4 Tb1 1_555 1_555
O5 C27 1_555 1_555
C1 N2 1_555 1_555
O6 C28 1_555 1_555
C2 N2 1_555 1_555
C3 C4 1_555 1_555
C4 C12 1_555 1_555
C5 C1 1_555 1_555
C6 C3 1_555 1_555
H1 C6 1_555 1_555
O7 C27 1_555 1_555
C7 H2 1_555 1_555
O8 Tb1 1_555 1_555
C8 N1 1_555 1_555
C9 H3 1_555 1_555
O9 C11 1_555 1_555
O10 C5 1_555 1_555
C10 C9 1_555 1_555
C11 C8 1_555 1_555
C12 C2 1_555 1_555
H4 C12 1_555 1_555
C13 O4 1_555 1_555
C14 C6 1_555 1_555
H5 C14 1_555 1_555
C15 N1 1_555 1_555
C16 C14 1_555 1_555
C17 H6 1_555 1_555
C18 C1 1_555 1_555
H7 C18 1_555 1_555
C19 C16 1_555 1_555
H8 C19 1_555 1_555
C20 C7 1_555 1_555
C21 C7 1_555 1_555
H9 C21 1_555 1_555
C22 C17 1_555 1_555
H10 C22 1_555 1_555
C23 O2 1_555 1_555
O11 C28 1_555 1_555
O12 C13 1_555 1_555
C24 C8 1_555 1_555
H11 C24 1_555 1_555
C25 C10 1_555 1_555
C26 C3 1_555 1_555
H12 C26 1_555 1_555
C27 C20 1_555 1_555
C28 C16 1_555 1_555
O13 Tb1 1_555 1_555
Tb1C O12 1_555 1_555
O12C Tb1 1_555 1_555
C2 C23 1_555 1_555
C4 C18 1_555 1_555
C5 O8 1_555 1_555
C9 C15 1_555 1_555
C10 C24 1_555 1_555
C13 C15 1_555 1_555
C17 C25 1_555 1_555
C19 C26 1_555 1_555
C20 C22 1_555 1_555
C21 C25 1_555 1_555

#END
