
#######################################################################
#
#                 Cambridge Crystallographic Data Centre
#                                CCDC 
#
#######################################################################
#
# If this CIF has been generated from an entry in the Cambridge 
# Structural Database, then it will include bibliographic, chemical, 
# crystal, experimental, refinement or atomic coordinate data resulting 
# from the CCDC's data processing and validation procedures.
#
#######################################################################

data_ZESTUO
_symmetry_cell_setting           monoclinic
_symmetry_space_group_name_H-M   'C 2/c'
_symmetry_Int_Tables_number      15
_space_group_name_Hall           '-C 2yn'
loop_
_symmetry_equiv_pos_site_id
_symmetry_equiv_pos_as_xyz
1 x,y,z
2 -x,y,1/2-z
3 1/2+x,1/2+y,z
4 1/2-x,1/2+y,1/2-z
5 -x,-y,-z
6 x,-y,1/2+z
7 1/2-x,1/2-y,-z
8 1/2+x,1/2-y,1/2+z
_cell_length_a                   17.8073(4)
_cell_length_b                   9.0579(2)
_cell_length_c                   16.4457(4)
_cell_angle_alpha                90
_cell_angle_beta                 118.0580(10)
_cell_angle_gamma                90
_cell_volume                     2340.88
loop_
_atom_site_label
_atom_site_type_symbol
_atom_site_fract_x
_atom_site_fract_y
_atom_site_fract_z
C1 C 0.00961(11) 0.2442(2) 0.10648(13)
H1 H -0.0495 0.2447 0.0738
C2 C 0.06283(12) 0.3127(2) 0.07563(13)
H2 H 0.0458 0.3641 0.0208
C3 C 0.14437(12) 0.2879(2) 0.14262(12)
H3 H 0.1938 0.3200 0.1422
C4 C 0.13946(10) 0.20381(19) 0.21329(12)
C5 C 0.20740(10) 0.15774(18) 0.29687(11)
C6 C 0.20665(10) 0.07534(18) 0.36873(11)
C7 C 0.27858(11) 0.03702(19) 0.45324(12)
H4 H 0.3345 0.0664 0.4726
C8 C 0.25045(12) -0.0513(2) 0.50103(13)
H5 H 0.2832 -0.0933 0.5588
C9 C 0.16190(12) -0.0656(2) 0.44493(12)
H6 H 0.1268 -0.1208 0.4609
C10 C 0.29312(10) 0.20538(18) 0.30993(11)
C11 C 0.33845(11) 0.31791(19) 0.37020(12)
H7 H 0.3190 0.3596 0.4085
C12 C 0.41307(11) 0.3675(2) 0.37258(12)
H8 H 0.4431 0.4425 0.4137
C13 C 0.40209(11) 0.2010(2) 0.26401(13)
H9 H 0.4239 0.1592 0.2279
C14 C 0.32773(11) 0.1430(2) 0.25778(12)
H10 H 0.3012 0.0632 0.2192
N1 N 0.05403(9) 0.17878(16) 0.18768(10)
N2 N 0.13446(9) 0.00935(15) 0.36633(10)
N3 N 0.44429(9) 0.31332(18) 0.31882(11)
Cd1 Cd 0.0000 0.014773(19) 0.2500
C1A C -0.00961(11) 0.2442(2) 0.39352(13)
H1A H 0.0495 0.2447 0.4262
C2A C -0.06283(12) 0.3127(2) 0.42437(13)
H2A H -0.0458 0.3641 0.4792
C3A C -0.14437(12) 0.2879(2) 0.35738(12)
H3A H -0.1938 0.3200 0.3578
C4A C -0.13946(10) 0.20381(19) 0.28671(12)
C5A C -0.20740(10) 0.15774(18) 0.20313(11)
C6A C -0.20665(10) 0.07534(18) 0.13127(11)
C7A C -0.27858(11) 0.03702(19) 0.04676(12)
H4A H -0.3345 0.0664 0.0274
C8A C -0.25045(12) -0.0513(2) -0.00103(13)
H5A H -0.2832 -0.0933 -0.0588
C9A C -0.16190(12) -0.0656(2) 0.05507(12)
H6A H -0.1268 -0.1208 0.0391
C10A C -0.29312(10) 0.20538(18) 0.19007(11)
C11A C -0.33845(11) 0.31791(19) 0.12980(12)
H7A H -0.3190 0.3596 0.0915
C12A C -0.41307(11) 0.3675(2) 0.12742(12)
H8A H -0.4431 0.4425 0.0863
C13A C -0.40209(11) 0.2010(2) 0.23599(13)
H9A H -0.4239 0.1592 0.2721
C14A C -0.32773(11) 0.1430(2) 0.24222(12)
H10A H -0.3012 0.0632 0.2808
N1A N -0.05403(9) 0.17878(16) 0.31232(10)
N2A N -0.13446(9) 0.00935(15) 0.13367(10)
N3A N -0.44429(9) 0.31332(18) 0.18118(11)
N3B N -0.05571(9) -0.18668(18) 0.31882(11)
N3C N 0.05571(9) -0.18668(18) 0.18118(11)
Cd1B Cd -0.5000 0.514773(19) 0.2500
Cd1B_2 Cd 0.5000 0.514773(19) 0.2500
loop_
_geom_bond_atom_site_label_1
_geom_bond_atom_site_label_2
_geom_bond_site_symmetry_1
_geom_bond_site_symmetry_2
C1 H1 1_555 1_555
C2 C1 1_555 1_555
H2 C2 1_555 1_555
C3 C2 1_555 1_555
H3 C3 1_555 1_555
C4 C3 1_555 1_555
C5 C4 1_555 1_555
C6 C5 1_555 1_555
C7 C6 1_555 1_555
H4 C7 1_555 1_555
C8 C7 1_555 1_555
H5 C8 1_555 1_555
C9 C8 1_555 1_555
H6 C9 1_555 1_555
C10 C5 1_555 1_555
C11 C10 1_555 1_555
H7 C11 1_555 1_555
C12 C11 1_555 1_555
H8 C12 1_555 1_555
C13 H9 1_555 1_555
C14 C10 1_555 1_555
H10 C14 1_555 1_555
N1 C1 1_555 1_555
N2 C6 1_555 1_555
N3 C12 1_555 1_555
Cd1 N1 1_555 1_555
C1A H1A 1_555 1_555
C2A C1A 1_555 1_555
H2A C2A 1_555 1_555
C3A C2A 1_555 1_555
H3A C3A 1_555 1_555
C4A C3A 1_555 1_555
C5A C4A 1_555 1_555
C6A C5A 1_555 1_555
C7A C6A 1_555 1_555
H4A C7A 1_555 1_555
C8A C7A 1_555 1_555
H5A C8A 1_555 1_555
C9A C8A 1_555 1_555
H6A C9A 1_555 1_555
C10A C5A 1_555 1_555
C11A C10A 1_555 1_555
H7A C11A 1_555 1_555
C12A C11A 1_555 1_555
H8A C12A 1_555 1_555
C13A H9A 1_555 1_555
C14A C10A 1_555 1_555
H10A C14A 1_555 1_555
N1A Cd1 1_555 1_555
N2A Cd1 1_555 1_555
N3A C12A 1_555 1_555
N3B Cd1 1_555 1_555
N3C Cd1 1_555 1_555
Cd1B N3A 1_555 1_555
Cd1B_2 N3 1_555 1_555
C4 N1 1_555 1_555
C9 N2 1_555 1_555
C13 C14 1_555 1_555
C13 N3 1_555 1_555
N2 Cd1 1_555 1_555
C1A N1A 1_555 1_555
C4A N1A 1_555 1_555
C6A N2A 1_555 1_555
C9A N2A 1_555 1_555
C13A C14A 1_555 1_555
C13A N3A 1_555 1_555

#END
