
#######################################################################
#
#                 Cambridge Crystallographic Data Centre
#                                CCDC 
#
#######################################################################
#
# If this CIF has been generated from an entry in the Cambridge 
# Structural Database, then it will include bibliographic, chemical, 
# crystal, experimental, refinement or atomic coordinate data resulting 
# from the CCDC's data processing and validation procedures.
#
#######################################################################

data_ZETPUL
_symmetry_cell_setting           tetragonal
_symmetry_space_group_name_H-M   'I 41/a'
_symmetry_Int_Tables_number      88
_space_group_name_Hall           '-I 4ad'
loop_
_symmetry_equiv_pos_site_id
_symmetry_equiv_pos_as_xyz
1 x,y,z
2 1/2-x,-y,1/2+z
3 3/4-y,1/4+x,1/4+z
4 3/4+y,3/4-x,3/4+z
5 1/2+x,1/2+y,1/2+z
6 -x,1/2-y,z
7 1/4-y,3/4+x,3/4+z
8 1/4+y,1/4-x,1/4+z
9 -x,-y,-z
10 1/2+x,y,1/2-z
11 1/4+y,3/4-x,3/4-z
12 1/4-y,1/4+x,1/4-z
13 1/2-x,1/2-y,1/2-z
14 x,1/2+y,-z
15 3/4+y,1/4-x,1/4-z
16 3/4-y,3/4+x,3/4-z
_cell_length_a                   25.803(3)
_cell_length_b                   25.803(3)
_cell_length_c                   11.9679(15)
_cell_angle_alpha                90
_cell_angle_beta                 90
_cell_angle_gamma                90
_cell_volume                     7968.17
loop_
_atom_site_label
_atom_site_type_symbol
_atom_site_fract_x
_atom_site_fract_y
_atom_site_fract_z
C1 C 0.1813(5) 0.7033(5) 0.0973(10)
C2 C 0.1495(5) 0.6832(5) 0.0012(10)
H1 H 0.1145 0.6760 0.0265
H2 H 0.1477 0.7093 -0.0569
C3 C 0.2083(5) 0.6472(5) -0.1385(11)
H3 H 0.2280 0.6782 -0.1211
H4 H 0.1884 0.6538 -0.2058
C4 C 0.2449(4) 0.6026(4) -0.1582(10)
C5 C 0.3441(5) 0.6327(5) 0.0347(11)
C6 C 0.3900(6) 0.6657(6) 0.0704(14)
H5 H 0.4171 0.6428 0.0972
H6 H 0.4033 0.6836 0.0051
C7 C 0.4188(6) 0.7052(7) 0.2441(16)
H7 H 0.4201 0.7393 0.2779
H8 H 0.4523 0.6983 0.2104
C8 C 0.4081(7) 0.6652(9) 0.3331(18)
C9 C 0.2502(4) 0.5764(4) 0.3699(9)
C10 C 0.2778(6) 0.6005(5) 0.4676(11)
H9 H 0.2606 0.5906 0.5363
H10 H 0.3132 0.5878 0.4705
C11 C 0.2324(7) 0.6802(6) 0.5103(12)
H11 H 0.2400 0.6877 0.5880
H12 H 0.2043 0.6552 0.5085
C12 C 0.2153(6) 0.7287(5) 0.4542(11)
Dy1 Dy 0.21809(2) 0.58081(2) 0.10043(5)
Dy2 Dy 0.29179(2) 0.68653(2) 0.25673(5)
N1 N 0.1728(4) 0.6351(4) -0.0450(8)
H13 H 0.1465 0.6157 -0.0733
N2 N 0.3790(4) 0.7045(5) 0.1578(11)
H14 H 0.3775 0.7364 0.1255
N3 N 0.2783(5) 0.6571(4) 0.4582(9)
H15 H 0.3062 0.6684 0.4977
O1 O 0.2160(3) 0.6746(3) 0.1370(7)
O2 O 0.1695(3) 0.7470(3) 0.1351(7)
O3 O 0.2505(3) 0.5693(3) -0.0783(7)
O4 O 0.2735(3) 0.6003(4) -0.2408(8)
O5 O 0.3056(3) 0.6301(3) 0.0999(7)
O6 O 0.3499(3) 0.6091(3) -0.0556(7)
O7 O 0.3653(4) 0.6432(4) 0.3275(9)
O8 O 0.4402(6) 0.6640(9) 0.4132(17)
O9 O 0.2483(3) 0.6041(3) 0.2802(7)
O10 O 0.2302(3) 0.5330(3) 0.3791(7)
O11 O 0.2232(3) 0.7331(3) 0.3472(7)
O12 O 0.1942(4) 0.7635(3) 0.5086(6)
Dy1B Dy 0.16919(2) 0.46809(2) 0.35043(5)
Dy1C Dy 0.33081(2) 0.53191(2) -0.14957(5)
Dy2L Dy 0.20821(2) 0.81347(2) 0.24327(5)
O2L O 0.3305(3) 0.7530(3) 0.3649(7)
O3B O 0.1807(3) 0.5005(3) 0.1717(7)
O4B O 0.1497(4) 0.5235(3) 0.0092(8)
O6B O 0.1409(3) 0.5999(3) 0.1944(7)
O10C O 0.2830(3) 0.5198(3) 0.1291(7)
O11L O 0.2768(3) 0.7669(3) 0.1528(7)
O13 O 0.3652(4) 0.6797(3) 0.6007(6)
H16 H 0.3910 0.6891 0.5665
H17 H 0.3616 0.6965 0.6583
O14 O 0.3433(4) 0.7392(3) 0.7735(6)
H18 H 0.3609 0.7649 0.7867
H19 H 0.3248 0.7339 0.8281
loop_
_geom_bond_atom_site_label_1
_geom_bond_atom_site_label_2
_geom_bond_site_symmetry_1
_geom_bond_site_symmetry_2
C1 C2 1_555 1_555
C2 H1 1_555 1_555
H2 C2 1_555 1_555
C3 H3 1_555 1_555
H4 C3 1_555 1_555
C4 C3 1_555 1_555
C5 C6 1_555 1_555
C6 H5 1_555 1_555
H6 C6 1_555 1_555
C7 H7 1_555 1_555
H8 C7 1_555 1_555
C8 C7 1_555 1_555
C9 C10 1_555 1_555
C10 H9 1_555 1_555
H10 C10 1_555 1_555
C11 H11 1_555 1_555
H12 C11 1_555 1_555
C12 C11 1_555 1_555
Dy1 N1 1_555 1_555
Dy2 N2 1_555 1_555
N1 C2 1_555 1_555
H13 N1 1_555 1_555
N2 C6 1_555 1_555
H14 N2 1_555 1_555
N3 C10 1_555 1_555
H15 N3 1_555 1_555
O1 C1 1_555 1_555
O2 C1 1_555 1_555
O3 C4 1_555 1_555
O4 C4 1_555 1_555
O5 C5 1_555 1_555
O6 C5 1_555 1_555
O7 C8 1_555 1_555
O8 C8 1_555 1_555
O9 C9 1_555 1_555
O10 C9 1_555 1_555
O11 C12 1_555 1_555
O12 C12 1_555 1_555
O13 H16 1_555 1_555
H17 O13 1_555 1_555
O14 H18 1_555 1_555
H19 O14 1_555 1_555
Dy1B O10 1_555 1_555
Dy1C O3 1_555 1_555
Dy2L O2 1_555 1_555
O2L Dy2 1_555 1_555
O3B Dy1 1_555 1_555
O4B Dy1 1_555 1_555
O6B Dy1 1_555 1_555
O10C Dy1 1_555 1_555
O11L Dy2 1_555 1_555
C3 N1 1_555 1_555
C7 N2 1_555 1_555
C11 N3 1_555 1_555
Dy1 O1 1_555 1_555
Dy1 O3 1_555 1_555
Dy1 O5 1_555 1_555
Dy1 O9 1_555 1_555
Dy2 N3 1_555 1_555
Dy2 O1 1_555 1_555
Dy2 O5 1_555 1_555
Dy2 O7 1_555 1_555
Dy2 O9 1_555 1_555
Dy2 O11 1_555 1_555
O4 Dy1C 1_555 1_555
O6 Dy1C 1_555 1_555
O11 Dy2L 1_555 1_555
Dy1B O3B 1_555 1_555
Dy2L O11L 1_555 1_555

#END
