
#######################################################################
#
#                 Cambridge Crystallographic Data Centre
#                                CCDC 
#
#######################################################################
#
# If this CIF has been generated from an entry in the Cambridge 
# Structural Database, then it will include bibliographic, chemical, 
# crystal, experimental, refinement or atomic coordinate data resulting 
# from the CCDC's data processing and validation procedures.
#
#######################################################################

data_ZETQAS
_symmetry_cell_setting           tetragonal
_symmetry_space_group_name_H-M   'I 41/a'
_symmetry_Int_Tables_number      88
_space_group_name_Hall           '-I 4ad'
loop_
_symmetry_equiv_pos_site_id
_symmetry_equiv_pos_as_xyz
1 x,y,z
2 1/2-x,-y,1/2+z
3 3/4-y,1/4+x,1/4+z
4 3/4+y,3/4-x,3/4+z
5 1/2+x,1/2+y,1/2+z
6 -x,1/2-y,z
7 1/4-y,3/4+x,3/4+z
8 1/4+y,1/4-x,1/4+z
9 -x,-y,-z
10 1/2+x,y,1/2-z
11 1/4+y,3/4-x,3/4-z
12 1/4-y,1/4+x,1/4-z
13 1/2-x,1/2-y,1/2-z
14 x,1/2+y,-z
15 3/4+y,1/4-x,1/4-z
16 3/4-y,3/4+x,3/4-z
_cell_length_a                   25.824(5)
_cell_length_b                   25.824(5)
_cell_length_c                   11.966(3)
_cell_angle_alpha                90
_cell_angle_beta                 90
_cell_angle_gamma                90
_cell_volume                     7979.87
loop_
_atom_site_label
_atom_site_type_symbol
_atom_site_fract_x
_atom_site_fract_y
_atom_site_fract_z
C1 C 0.18098(18) 0.70320(18) 0.0975(4)
C2 C 0.14943(19) 0.68297(19) 0.0009(4)
H1 H 0.1147 0.6751 0.0264
H2 H 0.1469 0.7095 -0.0562
C3 C 0.2092(2) 0.6475(2) -0.1388(4)
H3 H 0.2285 0.6786 -0.1207
H4 H 0.1898 0.6541 -0.2068
C4 C 0.24618(18) 0.60358(19) -0.1581(4)
C5 C 0.34456(19) 0.63267(19) 0.0331(4)
C6 C 0.3905(2) 0.6652(2) 0.0711(6)
H5 H 0.4173 0.6420 0.0985
H6 H 0.4045 0.6832 0.0066
C7 C 0.4201(2) 0.7049(3) 0.2458(6)
H7 H 0.4220 0.7393 0.2780
H8 H 0.4534 0.6968 0.2129
C8 C 0.4078(3) 0.6665(4) 0.3349(8)
C9 C 0.24923(18) 0.57672(19) 0.3697(4)
C10 C 0.2771(2) 0.6002(2) 0.4681(5)
H9 H 0.2602 0.5897 0.5369
H10 H 0.3126 0.5878 0.4700
C11 C 0.2315(3) 0.6800(2) 0.5105(5)
H11 H 0.2390 0.6874 0.5883
H12 H 0.2034 0.6551 0.5085
C12 C 0.2143(2) 0.7289(2) 0.4539(5)
N1 N 0.17293(15) 0.63593(15) -0.0476(3)
H13 H 0.1468 0.6166 -0.0769
N2 N 0.37944(17) 0.70364(19) 0.1584(4)
H14 H 0.3780 0.7354 0.1258
N3 N 0.27676(17) 0.65716(15) 0.4594(4)
H15 H 0.3045 0.6686 0.4995
O1 O 0.21624(12) 0.67430(12) 0.1358(3)
O2 O 0.16950(13) 0.74733(13) 0.1340(3)
O3 O 0.25018(12) 0.56950(12) -0.0803(3)
O4 O 0.27349(14) 0.60054(15) -0.2421(3)
O5 O 0.30581(13) 0.62995(13) 0.0981(3)
O6 O 0.35027(13) 0.60948(13) -0.0567(3)
O7 O 0.4398(3) 0.6636(4) 0.4152(7)
O8 O 0.36581(17) 0.64291(17) 0.3282(4)
O9 O 0.24859(13) 0.60372(13) 0.2805(3)
O10 O 0.23059(13) 0.53321(13) 0.3786(3)
O11 O 0.1926(2) 0.7626(2) 0.5082(4)
O12 O 0.22279(11) 0.73287(10) 0.3482(2)
Tb1 Tb 0.218038(8) 0.580817(8) 0.099506(19)
Tb2 Tb 0.291909(9) 0.686610(9) 0.25685(2)
O2L O 0.33050(13) 0.75267(13) 0.3660(3)
O3B O 0.18050(12) 0.50018(12) 0.1697(3)
O4B O 0.14946(15) 0.52349(14) 0.0079(3)
O6B O 0.14052(13) 0.60027(13) 0.1933(3)
O10C O 0.28321(13) 0.51941(13) 0.1286(3)
O12L O 0.27721(11) 0.76713(10) 0.1518(2)
Tb1B Tb 0.169183(8) 0.468038(8) 0.349506(19)
Tb1C Tb 0.330817(8) 0.531962(8) -0.150494(19)
Tb2L Tb 0.208091(9) 0.813390(9) 0.24315(2)
O13 O 0.36537(11) 0.67943(10) 0.6007(2)
H16 H 0.3560 0.7012 0.6466
H17 H 0.3796 0.6936 0.5474
O14 O 0.34486(11) 0.73941(10) 0.7740(2)
H18 H 0.3672 0.7609 0.7887
H19 H 0.3289 0.7333 0.8317
loop_
_geom_bond_atom_site_label_1
_geom_bond_atom_site_label_2
_geom_bond_site_symmetry_1
_geom_bond_site_symmetry_2
C1 C2 1_555 1_555
C2 H1 1_555 1_555
H2 C2 1_555 1_555
C3 H3 1_555 1_555
H4 C3 1_555 1_555
C4 C3 1_555 1_555
C5 C6 1_555 1_555
C6 H5 1_555 1_555
H6 C6 1_555 1_555
C7 H7 1_555 1_555
H8 C7 1_555 1_555
C8 C7 1_555 1_555
C9 C10 1_555 1_555
C10 H9 1_555 1_555
H10 C10 1_555 1_555
C11 H11 1_555 1_555
H12 C11 1_555 1_555
C12 C11 1_555 1_555
N1 C2 1_555 1_555
H13 N1 1_555 1_555
N2 C6 1_555 1_555
H14 N2 1_555 1_555
N3 C10 1_555 1_555
H15 N3 1_555 1_555
O1 C1 1_555 1_555
O2 C1 1_555 1_555
O3 C4 1_555 1_555
O4 C4 1_555 1_555
O5 C5 1_555 1_555
O6 C5 1_555 1_555
O7 C8 1_555 1_555
O8 C8 1_555 1_555
O9 C9 1_555 1_555
O10 C9 1_555 1_555
O11 C12 1_555 1_555
O12 C12 1_555 1_555
Tb1 N1 1_555 1_555
Tb2 N2 1_555 1_555
O13 H16 1_555 1_555
H17 O13 1_555 1_555
O14 H18 1_555 1_555
H19 O14 1_555 1_555
O2L Tb2 1_555 1_555
O3B Tb1 1_555 1_555
O4B Tb1 1_555 1_555
O6B Tb1 1_555 1_555
O10C Tb1 1_555 1_555
O12L Tb2 1_555 1_555
Tb1B O10 1_555 1_555
Tb1C O3 1_555 1_555
Tb2L O2 1_555 1_555
C3 N1 1_555 1_555
C7 N2 1_555 1_555
C11 N3 1_555 1_555
N3 Tb2 1_555 1_555
O1 Tb1 1_555 1_555
O1 Tb2 1_555 1_555
O3 Tb1 1_555 1_555
O4 Tb1C 1_555 1_555
O5 Tb1 1_555 1_555
O5 Tb2 1_555 1_555
O6 Tb1C 1_555 1_555
O8 Tb2 1_555 1_555
O9 Tb1 1_555 1_555
O9 Tb2 1_555 1_555
O12 Tb2 1_555 1_555
O12 Tb2L 1_555 1_555
O3B Tb1B 1_555 1_555
O12L Tb2L 1_555 1_555

#END
