
#######################################################################
#
#                 Cambridge Crystallographic Data Centre
#                                CCDC 
#
#######################################################################
#
# If this CIF has been generated from an entry in the Cambridge 
# Structural Database, then it will include bibliographic, chemical, 
# crystal, experimental, refinement or atomic coordinate data resulting 
# from the CCDC's data processing and validation procedures.
#
#######################################################################

data_ZETRAT
_symmetry_cell_setting           orthorhombic
_symmetry_space_group_name_H-M   'P n n a'
_symmetry_Int_Tables_number      52
_space_group_name_Hall           '-P 2a 2bc'
loop_
_symmetry_equiv_pos_site_id
_symmetry_equiv_pos_as_xyz
1 x,y,z
2 1/2-x,-y,z
3 1/2-x,1/2+y,1/2-z
4 x,1/2-y,1/2-z
5 -x,-y,-z
6 1/2+x,y,-z
7 1/2+x,1/2-y,1/2+z
8 -x,1/2+y,1/2+z
_cell_length_a                   14.4706(18)
_cell_length_b                   12.9392(16)
_cell_length_c                   8.1613(10)
_cell_angle_alpha                90
_cell_angle_beta                 90
_cell_angle_gamma                90
_cell_volume                     1528.11
loop_
_atom_site_label
_atom_site_type_symbol
_atom_site_fract_x
_atom_site_fract_y
_atom_site_fract_z
Na1 Na 0.73069(4) 0.64804(4) 0.10248(7)
Mn1 Mn 0.49332(2) 0.2500 0.2500
O1 O 0.64542(7) 0.50093(8) 0.06431(14)
O2 O 0.59833(7) 0.34115(8) 0.12282(13)
O3 O 0.38623(7) 0.25151(7) 0.45346(14)
O4 O 0.29803(7) 0.35207(8) 0.61097(13)
N1 N 0.46276(8) 0.40837(9) 0.30556(15)
C1 C 0.39517(9) 0.43231(11) 0.40983(17)
C2 C 0.36897(10) 0.53430(11) 0.43476(18)
H1 H 0.3213 0.5514 0.5101
C3 C 0.41475(10) 0.61121(11) 0.34592(19)
H2 H 0.3969 0.6814 0.3581
C4 C 0.48610(10) 0.58547(12) 0.24019(17)
H3 H 0.5184 0.6372 0.1806
C5 C 0.50888(9) 0.48144(12) 0.22418(18)
C6 C 0.59022(10) 0.43944(11) 0.12735(17)
C7 C 0.35581(9) 0.33867(11) 0.49941(18)
Na1A Na 0.76931(4) 0.35196(4) 0.10248(7)
O1A O 0.85458(7) 0.49907(8) 0.06431(14)
O2A O 0.90167(7) 0.65885(8) 0.12282(13)
O3A O 1.11377(7) 0.74849(7) 0.45346(14)
O4A O 1.20197(7) 0.64793(8) 0.61097(13)
N1A N 1.03724(8) 0.59163(9) 0.30556(15)
C1A C 1.10483(9) 0.56769(11) 0.40983(17)
C2A C 1.13103(10) 0.46570(11) 0.43476(18)
H1A H 1.1787 0.4486 0.5101
C3A C 1.08525(10) 0.38879(11) 0.34592(19)
H2A H 1.1031 0.3186 0.3581
C4A C 1.01390(10) 0.41453(12) 0.24019(17)
H3A H 0.9816 0.3628 0.1806
C5A C 0.99112(9) 0.51856(12) 0.22418(18)
C6A C 0.90978(10) 0.56056(11) 0.12735(17)
C7A C 1.14419(9) 0.66133(11) 0.49941(18)
Na1D Na 0.26931(4) 0.35196(4) 0.89752(7)
Na1E Na 1.23069(4) 0.64804(4) 0.89752(7)
Na1F Na 1.23069(4) 0.85196(4) 0.60248(7)
Na1G Na 0.26931(4) 0.14804(4) 0.60248(7)
Mn1A Mn 1.00668(2) 0.7500 0.2500
O2C O 0.59833(7) 0.15885(8) 0.37718(13)
O3C O 0.38623(7) 0.24849(7) 0.04654(14)
O3F O 0.88623(7) 0.24849(7) -0.04654(14)
O3G O 0.61377(7) 0.75151(7) -0.04654(14)
O4D O 0.70197(7) 0.64793(8) 0.38903(13)
O4E O 0.79803(7) 0.35207(8) 0.38903(13)
O4F O 0.79803(7) 0.14793(8) 0.11097(13)
O4G O 0.70197(7) 0.85207(8) 0.11097(13)
N1C N 0.46276(8) 0.09163(9) 0.19444(15)
loop_
_geom_bond_atom_site_label_1
_geom_bond_atom_site_label_2
_geom_bond_site_symmetry_1
_geom_bond_site_symmetry_2
Na1 O1 1_555 1_555
Mn1 O2 1_555 1_555
O1 C6 1_555 1_555
O2 C6 1_555 1_555
O3 Mn1 1_555 1_555
O4 C7 1_555 1_555
N1 Mn1 1_555 1_555
C1 N1 1_555 1_555
C2 C1 1_555 1_555
H1 C2 1_555 1_555
C3 C2 1_555 1_555
H2 C3 1_555 1_555
C4 C3 1_555 1_555
H3 C4 1_555 1_555
C5 N1 1_555 1_555
C6 C5 1_555 1_555
C7 O3 1_555 1_555
Na1A O1 1_555 1_555
O1A Na1 1_555 1_555
O2A Na1 1_555 1_555
O3A C7A 1_555 1_555
O4A C7A 1_555 1_555
N1A C1A 1_555 1_555
C1A C2A 1_555 1_555
C2A H1A 1_555 1_555
C3A C2A 1_555 1_555
H2A C3A 1_555 1_555
C4A C3A 1_555 1_555
H3A C4A 1_555 1_555
C5A N1A 1_555 1_555
C6A O1A 1_555 1_555
C7A C1A 1_555 1_555
Na1D O4 1_555 1_555
Na1E O4A 1_555 1_555
Na1F O3A 1_555 1_555
Na1G O3 1_555 1_555
Mn1A O2A 1_555 1_555
O2C Mn1 1_555 1_555
O3C Mn1 1_555 1_555
O3F Na1A 1_555 1_555
O3G Na1 1_555 1_555
O4D Na1 1_555 1_555
O4E Na1A 1_555 1_555
O4F Na1A 1_555 1_555
O4G Na1 1_555 1_555
N1C Mn1 1_555 1_555
O2 Na1A 1_555 1_555
O4 Na1G 1_555 1_555
C1 C7 1_555 1_555
C4 C5 1_555 1_555
Na1A O1A 1_555 1_555
O2A C6A 1_555 1_555
O3A Mn1A 1_555 1_555
O4A Na1F 1_555 1_555
N1A Mn1A 1_555 1_555
C4A C5A 1_555 1_555
C5A C6A 1_555 1_555

#END
