
#######################################################################
#
#                 Cambridge Crystallographic Data Centre
#                                CCDC 
#
#######################################################################
#
# If this CIF has been generated from an entry in the Cambridge 
# Structural Database, then it will include bibliographic, chemical, 
# crystal, experimental, refinement or atomic coordinate data resulting 
# from the CCDC's data processing and validation procedures.
#
#######################################################################

data_ZETSUM
_symmetry_cell_setting           monoclinic
_symmetry_space_group_name_H-M   'P 21/n'
_symmetry_Int_Tables_number      14
_space_group_name_Hall           '-P 2yn'
loop_
_symmetry_equiv_pos_site_id
_symmetry_equiv_pos_as_xyz
1 x,y,z
2 1/2-x,1/2+y,1/2-z
3 -x,-y,-z
4 1/2+x,1/2-y,1/2+z
_cell_length_a                   8.170(3)
_cell_length_b                   5.710(2)
_cell_length_c                   20.845(9)
_cell_angle_alpha                90
_cell_angle_beta                 91.38(2)
_cell_angle_gamma                90
_cell_volume                     972.152
loop_
_atom_site_label
_atom_site_type_symbol
_atom_site_fract_x
_atom_site_fract_y
_atom_site_fract_z
Ag1 Ag -0.06725(4) 0.20664(7) 0.52883(2)
O1 O 0.1280(4) 0.3531(6) 0.4642(2)
O2 O 0.2836(3) 0.0318(6) 0.4592(1)
N1 N 0.4476(4) 0.2954(7) 0.3576(2)
C1 C 0.2545(5) 0.2447(8) 0.4504(2)
C2 C 0.3898(4) 0.3978(8) 0.4215(2)
C3 C 0.5303(4) 0.4334(8) 0.4706(2)
C4 C 0.3053(6) 0.1942(9) 0.3201(2)
C5 C 0.5149(6) 0.4930(9) 0.3182(2)
C6 C 0.5788(6) 0.1110(10) 0.3662(2)
N2 N 0.0433(5) 0.3686(10) 0.6604(2)
O3 O 0.1375(5) 0.3173(10) 0.6168(2)
O4 O 0.0871(5) 0.4975(12) 0.7055(2)
O5 O -0.0992(5) 0.2923(7) 0.6579(2)
H1 H 0.3431 0.5488 0.4125
H2 H 0.6169 0.5200 0.4513
H3 H 0.5729 0.2838 0.4838
H4 H 0.3431 0.1309 0.2804
H5 H 0.2560 0.0720 0.3446
H6 H 0.2259 0.3146 0.3112
H7 H 0.5518 0.4327 0.2780
H8 H 0.4307 0.6073 0.3103
H9 H 0.6051 0.5648 0.3411
H10 H 0.6098 0.0536 0.3249
H11 H 0.6725 0.1784 0.3878
H12 H 0.5375 -0.0161 0.3912
Ag1B Ag 0.06725(4) -0.20664(7) 0.47117(2)
O1B O -0.1280(4) -0.3531(6) 0.5358(2)
O1_2 O 0.1280(4) -0.6469(6) 0.4642(2)
O2B O -0.2836(3) -0.0318(6) 0.5408(1)
Ag1B_2 Ag 0.06725(4) 0.79336(7) 0.47117(2)
C3B C 0.4697(4) 0.5666(8) 0.5294(2)
C2B C 0.6102(4) 0.6022(8) 0.5785(2)
N1B N 0.5524(4) 0.7046(7) 0.6424(2)
C4B C 0.6947(6) 0.8058(9) 0.6799(2)
H4B H 0.6569 0.8691 0.7196
H5B H 0.7440 0.9280 0.6554
H6B H 0.7741 0.6854 0.6888
C5B C 0.4851(6) 0.5070(9) 0.6818(2)
H7B H 0.4482 0.5673 0.7220
H8B H 0.5693 0.3927 0.6897
H9B H 0.3949 0.4352 0.6589
C6B C 0.4212(6) 0.8890(10) 0.6338(2)
H10B H 0.3902 0.9464 0.6751
H11B H 0.3275 0.8216 0.6122
H12B H 0.4625 1.0161 0.6088
C1B C 0.7455(5) 0.7553(8) 0.5496(2)
H1B H 0.6569 0.4512 0.5875
H2B H 0.3831 0.4800 0.5487
H3B H 0.4271 0.7162 0.5162
O3B O -0.1375(5) -0.3173(10) 0.3832(2)
N2B N -0.0433(5) -0.3686(10) 0.3396(2)
O4B O -0.0871(5) -0.4975(12) 0.2945(2)
O5B O 0.0992(5) -0.2923(7) 0.3421(2)
O1B_2 O -0.1280(4) 0.6469(6) 0.5358(2)
O1B_3 O 0.8720(4) 0.6469(6) 0.5358(2)
O2B_2 O 0.7164(3) 0.9682(6) 0.5408(1)
Ag1_2 Ag 0.93275(4) 0.20664(7) 0.52883(2)
Ag1B_3 Ag 1.06725(4) 0.79336(7) 0.47117(2)
Ag1_3 Ag 0.93275(4) 1.20664(7) 0.52883(2)
loop_
_geom_bond_atom_site_label_1
_geom_bond_atom_site_label_2
_geom_bond_site_symmetry_1
_geom_bond_site_symmetry_2
Ag1 O1 1_555 1_555
O1 C1 1_555 1_555
O2 C1 1_555 1_555
N1 C2 1_555 1_555
C1 C2 1_555 1_555
C2 C3 1_555 1_555
C3 H2 1_555 1_555
C4 N1 1_555 1_555
C5 N1 1_555 1_555
C6 N1 1_555 1_555
N2 O3 1_555 1_555
O3 Ag1 1_555 1_555
O4 N2 1_555 1_555
O5 N2 1_555 1_555
H1 C2 1_555 1_555
H3 C3 1_555 1_555
H4 C4 1_555 1_555
H5 C4 1_555 1_555
H6 C4 1_555 1_555
H7 C5 1_555 1_555
H8 C5 1_555 1_555
H9 C5 1_555 1_555
H10 C6 1_555 1_555
H11 C6 1_555 1_555
H12 C6 1_555 1_555
Ag1B Ag1 1_555 1_555
O1B Ag1B 1_555 1_555
O1_2 Ag1B 1_555 1_555
O2B Ag1 1_555 1_555
Ag1B_2 O1 1_555 1_555
C3B C3 1_555 1_555
C2B C3B 1_555 1_555
N1B C2B 1_555 1_555
C4B N1B 1_555 1_555
H4B C4B 1_555 1_555
H5B C4B 1_555 1_555
H6B C4B 1_555 1_555
C5B N1B 1_555 1_555
H7B C5B 1_555 1_555
H8B C5B 1_555 1_555
H9B C5B 1_555 1_555
C6B N1B 1_555 1_555
H10B C6B 1_555 1_555
H11B C6B 1_555 1_555
H12B C6B 1_555 1_555
C1B C2B 1_555 1_555
H1B C2B 1_555 1_555
H2B C3B 1_555 1_555
H3B C3B 1_555 1_555
O3B Ag1B 1_555 1_555
N2B O3B 1_555 1_555
O4B N2B 1_555 1_555
O5B N2B 1_555 1_555
O1B_2 Ag1 1_555 1_555
O1B_3 C1B 1_555 1_555
O2B_2 C1B 1_555 1_555
Ag1_2 O1B_3 1_555 1_555
Ag1B_3 O1B_3 1_555 1_555
Ag1_3 O2B_2 1_555 1_555
O2 Ag1B 1_555 1_555
Ag1B_2 O1B_2 1_555 1_555
Ag1B_3 Ag1_3 1_555 1_555

#END
