
#######################################################################
#
#                 Cambridge Crystallographic Data Centre
#                                CCDC 
#
#######################################################################
#
# If this CIF has been generated from an entry in the Cambridge 
# Structural Database, then it will include bibliographic, chemical, 
# crystal, experimental, refinement or atomic coordinate data resulting 
# from the CCDC's data processing and validation procedures.
#
#######################################################################

data_ZETTAT
_symmetry_cell_setting           triclinic
_symmetry_space_group_name_H-M   'P -1'
_symmetry_Int_Tables_number      2
_space_group_name_Hall           '-P 1'
loop_
_symmetry_equiv_pos_site_id
_symmetry_equiv_pos_as_xyz
1 x,y,z
2 -x,-y,-z
_cell_length_a                   5.396(2)
_cell_length_b                   8.906(4)
_cell_length_c                   10.922(6)
_cell_angle_alpha                66.93(4)
_cell_angle_beta                 81.89(4)
_cell_angle_gamma                84.33(4)
_cell_volume                     477.525
loop_
_atom_site_label
_atom_site_type_symbol
_atom_site_fract_x
_atom_site_fract_y
_atom_site_fract_z
Ag1 Ag 0.18939(4) 0.57079(3) 0.53268(2)
O1 O 0.4002(4) 0.3934(3) 0.4269(3)
O2 O 0.1188(4) 0.3200(3) 0.3332(3)
N1 N 0.5410(4) 0.2189(3) 0.1929(2)
C1 C 0.3295(5) 0.3145(3) 0.3673(3)
C2 C 0.5293(5) 0.1919(3) 0.3368(3)
C3 C 0.4736(6) 0.0166(4) 0.4293(3)
C4 C 0.7223(6) 0.3131(4) 0.1061(3)
C5 C 0.7370(7) 0.3460(5) -0.0279(3)
C6 C 0.5617(7) 0.2849(5) -0.0753(3)
C7 C 0.3789(7) 0.1878(4) 0.0149(3)
C8 C 0.3709(6) 0.1558(4) 0.1493(3)
N2 N 0.0505(5) 0.1811(3) 0.7382(3)
O3 O 0.1320(7) 0.3094(3) 0.7318(3)
O4 O 0.0803(6) 0.8171(4) 0.3466(3)
O5 O 0.0957(6) 0.0496(3) 0.8300(3)
H1 H 0.6893 0.2150 0.3526
H2 H 0.5748 -0.0576 0.3966
H3 H 0.3008 -0.0013 0.4301
H4 H 0.8409 0.3577 0.1388
H5 H 0.8688 0.4101 -0.0886
H6 H 0.5659 0.3105 -0.1695
H7 H 0.2587 0.1422 -0.0160
H8 H 0.2443 0.0885 0.2120
Ag1A Ag -0.18939(4) 0.42921(3) 0.46732(2)
Ag1A_2 Ag 0.81061(4) 0.42921(3) 0.46732(2)
O1A O 0.5998(4) 0.6066(3) 0.5731(3)
O2A O -0.1188(4) 0.6800(3) 0.6668(3)
C3A C 0.5264(6) -0.0166(4) 0.5707(3)
O4A O -0.0803(6) 0.1829(4) 0.6534(3)
N2A N -0.0505(5) 0.8189(3) 0.2618(3)
O1_2 O -0.5998(4) 0.3934(3) 0.4269(3)
O1A_2 O -0.4002(4) 0.6066(3) 0.5731(3)
O3A O -0.1320(7) 0.6906(3) 0.2682(3)
C2A C 0.4707(5) -0.1919(3) 0.6632(3)
H2A H 0.4252 0.0576 0.6034
H3A H 0.6992 0.0013 0.5699
O5A O -0.0957(6) 0.9504(3) 0.1700(3)
N1A N 0.4590(4) -0.2189(3) 0.8071(2)
C1A C 0.6705(5) -0.3145(3) 0.6327(3)
H1A H 0.3107 -0.2150 0.6474
C4A C 0.2777(6) -0.3131(4) 0.8939(3)
C8A C 0.6291(6) -0.1558(4) 0.8507(3)
O1A_3 O 0.5998(4) -0.3934(3) 0.5731(3)
O2A_2 O 0.8812(4) -0.3200(3) 0.6668(3)
C5A C 0.2630(7) -0.3460(5) 1.0279(3)
H4A H 0.1591 -0.3577 0.8612
C7A C 0.6211(7) -0.1878(4) 0.9851(3)
H8A H 0.7557 -0.0885 0.7880
Ag1_2 Ag 0.18939(4) -0.42921(3) 0.53268(2)
Ag1A_3 Ag 0.81061(4) -0.57079(3) 0.46732(2)
Ag1_3 Ag 1.18939(4) -0.42921(3) 0.53268(2)
C6A C 0.4383(7) -0.2849(5) 1.0753(3)
H5A H 0.1312 -0.4101 1.0886
H7A H 0.7413 -0.1422 1.0160
H6A H 0.4341 -0.3105 1.1695
loop_
_geom_bond_atom_site_label_1
_geom_bond_atom_site_label_2
_geom_bond_site_symmetry_1
_geom_bond_site_symmetry_2
Ag1 O1 1_555 1_555
O1 C1 1_555 1_555
O2 C1 1_555 1_555
N1 C2 1_555 1_555
C1 C2 1_555 1_555
C2 C3 1_555 1_555
C3 H2 1_555 1_555
C4 N1 1_555 1_555
C5 C4 1_555 1_555
C6 C5 1_555 1_555
C7 C6 1_555 1_555
C8 N1 1_555 1_555
N2 O3 1_555 1_555
O3 Ag1 1_555 1_555
O4 Ag1 1_555 1_555
O5 N2 1_555 1_555
H1 C2 1_555 1_555
H3 C3 1_555 1_555
H4 C4 1_555 1_555
H5 C5 1_555 1_555
H6 C6 1_555 1_555
H7 C7 1_555 1_555
H8 C8 1_555 1_555
Ag1A Ag1 1_555 1_555
Ag1A_2 O1 1_555 1_555
O1A Ag1 1_555 1_555
O2A Ag1 1_555 1_555
C3A C3 1_555 1_555
O4A N2 1_555 1_555
N2A O4 1_555 1_555
O1_2 Ag1A 1_555 1_555
O1A_2 Ag1A 1_555 1_555
O3A Ag1A 1_555 1_555
C2A C3A 1_555 1_555
H2A C3A 1_555 1_555
H3A C3A 1_555 1_555
O5A N2A 1_555 1_555
N1A C2A 1_555 1_555
C1A C2A 1_555 1_555
H1A C2A 1_555 1_555
C4A N1A 1_555 1_555
C8A N1A 1_555 1_555
O1A_3 C1A 1_555 1_555
O2A_2 C1A 1_555 1_555
C5A C4A 1_555 1_555
H4A C4A 1_555 1_555
C7A C8A 1_555 1_555
H8A C8A 1_555 1_555
Ag1_2 O1A_3 1_555 1_555
Ag1A_3 O1A_3 1_555 1_555
Ag1_3 O2A_2 1_555 1_555
C6A C5A 1_555 1_555
H5A C5A 1_555 1_555
H7A C7A 1_555 1_555
H6A C6A 1_555 1_555
O2 Ag1A 1_555 1_555
C7 C8 1_555 1_555
Ag1A O4A 1_555 1_555
Ag1A_2 O1A 1_555 1_555
N2A O3A 1_555 1_555
C7A C6A 1_555 1_555
Ag1A_3 Ag1_3 1_555 1_555

#END
