
#######################################################################
#
#                 Cambridge Crystallographic Data Centre
#                                CCDC 
#
#######################################################################
#
# If this CIF has been generated from an entry in the Cambridge 
# Structural Database, then it will include bibliographic, chemical, 
# crystal, experimental, refinement or atomic coordinate data resulting 
# from the CCDC's data processing and validation procedures.
#
#######################################################################

data_ZEVMAQ
_symmetry_cell_setting           monoclinic
_symmetry_space_group_name_H-M   'P 21/n'
_symmetry_Int_Tables_number      14
_space_group_name_Hall           '-P 2yn'
loop_
_symmetry_equiv_pos_site_id
_symmetry_equiv_pos_as_xyz
1 x,y,z
2 1/2-x,1/2+y,1/2-z
3 -x,-y,-z
4 1/2+x,1/2-y,1/2+z
_cell_length_a                   7.6657(6)
_cell_length_b                   14.5794(12)
_cell_length_c                   17.3760(14)
_cell_angle_alpha                90
_cell_angle_beta                 95.3150(10)
_cell_angle_gamma                90
_cell_volume                     1933.61
loop_
_atom_site_label
_atom_site_type_symbol
_atom_site_fract_x
_atom_site_fract_y
_atom_site_fract_z
Hg1 Hg 0.51250(7) 0.11511(5) 0.24170(3)
Hg2 Hg -0.00865(8) 0.03440(5) 0.36075(3)
Hg3 Hg 0.5000 0.0000 0.5000
I1 I 0.83919(11) 0.18068(6) 0.23368(5)
I2 I 0.33572(10) 0.16116(6) 0.36275(4)
I3 I 0.05484(12) -0.09721(7) 0.26414(5)
I4 I -0.12329(11) 0.12397(6) 0.47777(5)
I5 I 0.40799(11) 0.11652(6) 0.60252(5)
N1 N 0.3331(16) 0.1031(8) 0.1294(7)
N2 N 0.5125(19) -0.0440(10) 0.2021(8)
H1 H 0.6236 -0.0646 0.2042
H2 H 0.4547 -0.0779 0.2348
C1 C 0.243(2) 0.1705(15) 0.0978(12)
H3 H 0.2383 0.2266 0.1252
C2 C 0.1496(19) 0.1627(11) 0.0212(9)
H4 H 0.0821 0.2133 0.0009
C3 C 0.1556(19) 0.0870(11) -0.0209(9)
H5 H 0.0981 0.0836 -0.0717
C4 C 0.2564(19) 0.0070(12) 0.0146(8)
C5 C 0.263(2) -0.0711(14) -0.0257(10)
H6 H 0.2042 -0.0777 -0.0759
C6 C 0.3616(19) -0.1420(11) 0.0103(9)
H7 H 0.3748 -0.1971 -0.0177
C7 C 0.4432(19) -0.1354(11) 0.0870(9)
H8 H 0.5045 -0.1861 0.1108
C8 C 0.431(2) -0.0547(12) 0.1254(10)
C9 C 0.3375(17) 0.0248(10) 0.0881(7)
Hg1B Hg -0.51250(7) -0.11511(5) 0.75830(3)
Hg2B Hg 0.00865(8) -0.03440(5) 0.63925(3)
I1B I -0.83919(11) -0.18068(6) 0.76632(5)
I2B I -0.33572(10) -0.16116(6) 0.63725(4)
I3B I -0.05484(12) 0.09721(7) 0.73586(5)
I4B I 0.12329(11) -0.12397(6) 0.52223(5)
N1B N -0.3331(16) -0.1031(8) 0.8706(7)
N2B N -0.5125(19) 0.0440(10) 0.7979(8)
H1B H -0.6236 0.0646 0.7958
H2B H -0.4547 0.0779 0.7652
C1B C -0.243(2) -0.1705(15) 0.9022(12)
H3B H -0.2383 -0.2266 0.8748
C2B C -0.1496(19) -0.1627(11) 0.9788(9)
H4B H -0.0821 -0.2133 0.9991
C3B C -0.1556(19) -0.0870(11) 1.0209(9)
H5B H -0.0981 -0.0836 1.0717
C4B C -0.2564(19) -0.0070(12) 0.9854(8)
C5B C -0.263(2) 0.0711(14) 1.0257(10)
H6B H -0.2042 0.0777 1.0759
C6B C -0.3616(19) 0.1420(11) 0.9897(9)
H7B H -0.3748 0.1971 1.0177
C7B C -0.4432(19) 0.1354(11) 0.9130(9)
H8B H -0.5045 0.1861 0.8892
C8B C -0.431(2) 0.0547(12) 0.8746(10)
C9B C -0.3375(17) -0.0248(10) 0.9119(7)
I5B I 0.59201(11) -0.11652(6) 0.39748(5)
Hg2_2 Hg 0.99135(8) 0.03440(5) 0.36075(3)
Hg2B_2 Hg -0.99135(8) -0.03440(5) 0.63925(3)
Hg3_2 Hg -0.5000 0.0000 0.5000
I1_2 I -0.16081(11) 0.18068(6) 0.23368(5)
I1B_2 I 0.16081(11) -0.18068(6) 0.76632(5)
I2B_2 I 0.66428(10) -0.16116(6) 0.63725(4)
I4_2 I 0.87671(11) 0.12397(6) 0.47777(5)
loop_
_geom_bond_atom_site_label_1
_geom_bond_atom_site_label_2
_geom_bond_site_symmetry_1
_geom_bond_site_symmetry_2
Hg1 I1 1_555 1_555
Hg2 I2 1_555 1_555
Hg3 I2 1_555 1_555
I1 Hg2_2 1_555 1_555
I2 Hg1 1_555 1_555
I3 Hg2 1_555 1_555
I4 Hg2 1_555 1_555
I5 Hg3 1_555 1_555
N1 Hg1 1_555 1_555
N2 Hg1 1_555 1_555
H1 N2 1_555 1_555
H2 N2 1_555 1_555
C1 N1 1_555 1_555
H3 C1 1_555 1_555
C2 C1 1_555 1_555
H4 C2 1_555 1_555
C3 C2 1_555 1_555
H5 C3 1_555 1_555
C4 C3 1_555 1_555
C5 C4 1_555 1_555
H6 C5 1_555 1_555
C6 C5 1_555 1_555
H7 C6 1_555 1_555
C7 C6 1_555 1_555
H8 C7 1_555 1_555
C8 N2 1_555 1_555
C9 N1 1_555 1_555
Hg1B I1B 1_555 1_555
Hg2B I2B 1_555 1_555
I1B Hg2B_2 1_555 1_555
I2B Hg1B 1_555 1_555
I3B Hg2B 1_555 1_555
I4B Hg3 1_555 1_555
N1B Hg1B 1_555 1_555
N2B Hg1B 1_555 1_555
H1B N2B 1_555 1_555
H2B N2B 1_555 1_555
C1B N1B 1_555 1_555
H3B C1B 1_555 1_555
C2B C1B 1_555 1_555
H4B C2B 1_555 1_555
C3B C2B 1_555 1_555
H5B C3B 1_555 1_555
C4B C3B 1_555 1_555
C5B C4B 1_555 1_555
H6B C5B 1_555 1_555
C6B C5B 1_555 1_555
H7B C6B 1_555 1_555
C7B C6B 1_555 1_555
H8B C7B 1_555 1_555
C8B N2B 1_555 1_555
C9B N1B 1_555 1_555
I5B Hg3 1_555 1_555
Hg2_2 I4_2 1_555 1_555
Hg3_2 I4 1_555 1_555
I1_2 Hg2 1_555 1_555
I1B_2 Hg2B 1_555 1_555
I2B_2 Hg3 1_555 1_555
I4_2 Hg3 1_555 1_555
C4 C9 1_555 1_555
C7 C8 1_555 1_555
C8 C9 1_555 1_555
Hg2B I4B 1_555 1_555
I2B Hg3_2 1_555 1_555
C4B C9B 1_555 1_555
C7B C8B 1_555 1_555
C8B C9B 1_555 1_555

#END
