
#######################################################################
#
#                 Cambridge Crystallographic Data Centre
#                                CCDC 
#
#######################################################################
#
# If this CIF has been generated from an entry in the Cambridge 
# Structural Database, then it will include bibliographic, chemical, 
# crystal, experimental, refinement or atomic coordinate data resulting 
# from the CCDC's data processing and validation procedures.
#
#######################################################################

data_ZEVWOO
_symmetry_cell_setting           triclinic
_symmetry_space_group_name_H-M   'P -1'
_symmetry_Int_Tables_number      2
_space_group_name_Hall           '-P 1'
loop_
_symmetry_equiv_pos_site_id
_symmetry_equiv_pos_as_xyz
1 x,y,z
2 -x,-y,-z
_cell_length_a                   9.6110(19)
_cell_length_b                   14.831(3)
_cell_length_c                   16.740(3)
_cell_angle_alpha                74.76(3)
_cell_angle_beta                 75.04(3)
_cell_angle_gamma                81.55(3)
_cell_volume                     2216.17
loop_
_atom_site_label
_atom_site_type_symbol
_atom_site_fract_x
_atom_site_fract_y
_atom_site_fract_z
Cu1 Cu -0.16590(5) -0.00303(2) 0.13448(2)
C1 C -0.2800(3) 0.60967(18) -0.21439(18)
C2 C -0.3094(3) 0.68170(18) -0.28543(18)
C3 C -0.2799(3) 0.58564(18) -0.29191(18)
C4 C -0.2547(3) 0.58433(18) -0.13564(18)
C5 C -0.3435(3) 0.77315(18) -0.32018(17)
C6 C -0.2583(3) 0.51790(18) -0.33540(18)
C7 C -0.2388(3) 0.48451(18) -0.09072(18)
C8 C -0.3325(4) 0.42073(19) -0.09101(19)
H1 H -0.4075 0.4414 -0.1208
C9 C -0.3165(4) 0.32759(19) -0.04801(19)
H2 H -0.3799 0.2842 -0.0482
C10 C -0.2060(4) 0.29861(18) -0.00461(18)
C11 C -0.1875(4) 0.20321(19) 0.04187(19)
N1 N -0.1720(3) 0.12761(17) 0.08002(17)
C12 C -0.1108(4) 0.36111(19) -0.00476(19)
H3 H -0.0346 0.3403 0.0241
C13 C -0.1290(4) 0.45373(19) -0.04747(19)
H4 H -0.0654 0.4970 -0.0473
C14 C -0.2382(3) 0.65566(18) -0.09268(18)
C15 C -0.2905(4) 0.64459(19) -0.00510(19)
H5 H -0.3342 0.5890 0.0278
C16 C -0.2796(4) 0.7135(2) 0.0344(2)
H6 H -0.3173 0.7063 0.0938
C17 C -0.2122(4) 0.7939(2) -0.0148(2)
C18 C -0.1995(4) 0.8645(2) 0.0266(2)
N2 N -0.1903(4) 0.9192(2) 0.06141(19)
C19 C -0.1532(4) 0.80469(19) -0.1014(2)
H7 H -0.1046 0.8587 -0.1335
C20 C -0.1663(4) 0.73568(18) -0.14042(19)
H8 H -0.1265 0.7424 -0.1996
C21 C -0.3798(3) 0.84421(18) -0.26946(18)
C22 C -0.4519(3) 0.82325(19) -0.18401(19)
H9 H -0.4864 0.7630 -0.1587
C23 C -0.4741(4) 0.8888(2) -0.13518(19)
H10 H -0.5232 0.8735 -0.0769
C24 C -0.4238(4) 0.9771(2) -0.17226(19)
C25 C -0.4382(4) 1.0454(2) -0.1223(2)
N3 N -0.4453(4) 1.1009(2) -0.0845(2)
C26 C -0.3577(4) 1.0011(2) -0.25860(19)
H11 H -0.3273 1.0623 -0.2844
C27 C -0.3368(4) 0.93501(19) -0.30659(18)
H12 H -0.2926 0.9515 -0.3656
C28 C -0.3332(3) 0.80392(17) -0.41320(17)
C29 C -0.2088(4) 0.7790(2) -0.46971(19)
H13 H -0.1322 0.7401 -0.4486
C30 C -0.1959(4) 0.8107(2) -0.5565(2)
H14 H -0.1105 0.7940 -0.5951
C31 C -0.3091(4) 0.8673(2) -0.5869(2)
C32 C -0.2904(4) 0.9071(2) -0.6769(2)
N4 N -0.2665(4) 0.9419(2) -0.74764(18)
C33 C -0.4364(4) 0.8906(2) -0.5311(2)
H15 H -0.5145 0.9273 -0.5524
C34 C -0.4475(4) 0.8595(2) -0.4443(2)
H16 H -0.5330 0.8759 -0.4057
C35 C -0.2810(3) 0.53640(19) -0.42237(18)
C36 C -0.3854(4) 0.6041(2) -0.4495(2)
H17 H -0.4459 0.6382 -0.4108
C37 C -0.4027(4) 0.6231(2) -0.5324(2)
H18 H -0.4740 0.6700 -0.5506
C38 C -0.3143(4) 0.5723(3) -0.5882(2)
C39 C -0.3269(5) 0.5930(3) -0.6754(3)
N5 N -0.3364(5) 0.6109(4) -0.7443(2)
C40 C -0.2117(4) 0.5025(3) -0.5617(2)
H19 H -0.1528 0.4675 -0.6000
C41 C -0.1959(4) 0.4842(2) -0.4791(2)
H20 H -0.1267 0.4359 -0.4605
C42 C -0.2101(3) 0.42084(18) -0.29516(18)
C43 C -0.2836(4) 0.3466(2) -0.2954(2)
H21 H -0.3625 0.3587 -0.3222
C44 C -0.2429(4) 0.2556(2) -0.2570(2)
H22 H -0.2952 0.2055 -0.2558
C45 C -0.1250(4) 0.2379(2) -0.2201(2)
C46 C -0.0806(4) 0.1427(2) -0.1825(2)
N6 N -0.0388(4) 0.0677(2) -0.1544(2)
C47 C -0.0478(4) 0.3108(2) -0.2209(2)
H23 H 0.0343 0.2981 -0.1968
C48 C -0.0924(4) 0.40219(19) -0.25735(19)
H24 H -0.0423 0.4525 -0.2566
Cu1_2 Cu -0.16590(5) 0.99697(2) -0.86552(2)
Cu1_3 Cu -0.16590(5) 0.99697(2) 0.13448(2)
Cu1A Cu 0.16590(5) 0.00303(2) -0.13448(2)
N2_2 N -0.1903(4) -0.0808(2) 0.06141(19)
N4_2 N -0.2665(4) -0.0581(2) 0.25236(18)
N6A N 0.0388(4) -0.0677(2) 0.1544(2)
F1 F -0.6407(2) 0.78971(15) -0.60063(13)
B1 B -0.7619(6) 0.7985(3) -0.5360(3)
F2 F -0.7199(6) 0.7411(4) -0.4600(3)
F3 F -0.7756(5) 0.8896(3) -0.5245(3)
F4 F -0.8737(8) 0.7686(8) -0.5462(6)
C49 C 0.0406(11) 0.9817(6) -0.3976(8)
H25 H 0.0017 1.0285 -0.3640
H26 H -0.0309 0.9746 -0.4275
H27 H 0.1293 1.0021 -0.4392
N7 N 0.0708(8) 0.8983(5) -0.3453(4)
O1 O 0.1705(11) 0.8760(6) -0.3055(5)
O2 O -0.0083(7) 0.8307(4) -0.3385(4)
C50 C -0.7186(19) 0.6655(16) -0.2715(11)
H28 H -0.6231 0.6893 -0.2866
H29 H -0.7936 0.7166 -0.2625
H30 H -0.7304 0.6403 -0.3177
N8 N -0.7314(7) 0.5922(5) -0.1946(5)
O3 O -0.8451(11) 0.5545(8) -0.1633(8)
O4 O -0.6311(7) 0.5758(4) -0.1607(4)
F5? F -0.7502(12) 0.8114(14) -0.4687(7)
F6? F -0.8549(11) 0.8786(6) -0.5782(7)
F7? F -0.856(2) 0.7295(9) -0.5194(15)
O5? O -0.9181(15) 0.5816(10) -0.2484(10)
N9? N -0.820(2) 0.5910(15) -0.2225(11)
C51? C -0.708(5) 0.638(3) -0.284(2)
H31? H -0.6268 0.5925 -0.2994
H32? H -0.6752 0.6836 -0.2613
H33? H -0.7431 0.6711 -0.3351
O6? O -0.795(5) 0.559(3) -0.1543(18)
loop_
_geom_bond_atom_site_label_1
_geom_bond_atom_site_label_2
_geom_bond_site_symmetry_1
_geom_bond_site_symmetry_2
Cu1 N1 1_555 1_555
C1 C2 1_555 1_555
C2 C3 1_555 1_555
C3 C1 1_555 1_555
C4 C1 1_555 1_555
C5 C2 1_555 1_555
C6 C3 1_555 1_555
C7 C4 1_555 1_555
C8 C7 1_555 1_555
H1 C8 1_555 1_555
C9 C8 1_555 1_555
H2 C9 1_555 1_555
C10 C9 1_555 1_555
C11 C10 1_555 1_555
N1 C11 1_555 1_555
C12 C10 1_555 1_555
H3 C12 1_555 1_555
C13 C7 1_555 1_555
H4 C13 1_555 1_555
C14 C4 1_555 1_555
C15 C14 1_555 1_555
H5 C15 1_555 1_555
C16 C15 1_555 1_555
H6 C16 1_555 1_555
C17 C16 1_555 1_555
C18 C17 1_555 1_555
N2 C18 1_555 1_555
C19 C17 1_555 1_555
H7 C19 1_555 1_555
C20 C14 1_555 1_555
H8 C20 1_555 1_555
C21 C5 1_555 1_555
C22 C21 1_555 1_555
H9 C22 1_555 1_555
C23 C22 1_555 1_555
H10 C23 1_555 1_555
C24 C23 1_555 1_555
C25 C24 1_555 1_555
N3 C25 1_555 1_555
C26 C24 1_555 1_555
H11 C26 1_555 1_555
C27 C21 1_555 1_555
H12 C27 1_555 1_555
C28 C5 1_555 1_555
C29 C28 1_555 1_555
H13 C29 1_555 1_555
C30 C29 1_555 1_555
H14 C30 1_555 1_555
C31 C30 1_555 1_555
C32 C31 1_555 1_555
N4 C32 1_555 1_555
C33 C31 1_555 1_555
H15 C33 1_555 1_555
C34 C28 1_555 1_555
H16 C34 1_555 1_555
C35 C6 1_555 1_555
C36 C35 1_555 1_555
H17 C36 1_555 1_555
C37 C36 1_555 1_555
H18 C37 1_555 1_555
C38 C37 1_555 1_555
C39 C38 1_555 1_555
N5 C39 1_555 1_555
C40 C38 1_555 1_555
H19 C40 1_555 1_555
C41 C35 1_555 1_555
H20 C41 1_555 1_555
C42 C6 1_555 1_555
C43 C42 1_555 1_555
H21 C43 1_555 1_555
C44 C43 1_555 1_555
H22 C44 1_555 1_555
C45 C44 1_555 1_555
C46 C45 1_555 1_555
N6 C46 1_555 1_555
C47 C45 1_555 1_555
H23 C47 1_555 1_555
C48 C42 1_555 1_555
H24 C48 1_555 1_555
F1 B1 1_555 1_555
B1 F2 1_555 1_555
F3 B1 1_555 1_555
F4 B1 1_555 1_555
C49 H25 1_555 1_555
H26 C49 1_555 1_555
H27 C49 1_555 1_555
N7 C49 1_555 1_555
O1 N7 1_555 1_555
O2 N7 1_555 1_555
C50 H28 1_555 1_555
H29 C50 1_555 1_555
H30 C50 1_555 1_555
N8 C50 1_555 1_555
O3 N8 1_555 1_555
O4 N8 1_555 1_555
Cu1_2 N4 1_555 1_555
Cu1_3 N2 1_555 1_555
Cu1A N6 1_555 1_555
N2_2 Cu1 1_555 1_555
N4_2 Cu1 1_555 1_555
N6A Cu1 1_555 1_555
C12 C13 1_555 1_555
C19 C20 1_555 1_555
C26 C27 1_555 1_555
C33 C34 1_555 1_555
C40 C41 1_555 1_555
C47 C48 1_555 1_555

#END
