
#######################################################################
#
#                 Cambridge Crystallographic Data Centre
#                                CCDC 
#
#######################################################################
#
# If this CIF has been generated from an entry in the Cambridge 
# Structural Database, then it will include bibliographic, chemical, 
# crystal, experimental, refinement or atomic coordinate data resulting 
# from the CCDC's data processing and validation procedures.
#
#######################################################################

data_ZEVWII
_symmetry_cell_setting           triclinic
_symmetry_space_group_name_H-M   'P -1'
_symmetry_Int_Tables_number      2
_space_group_name_Hall           '-P 1'
loop_
_symmetry_equiv_pos_site_id
_symmetry_equiv_pos_as_xyz
1 x,y,z
2 -x,-y,-z
_cell_length_a                   9.776(2)
_cell_length_b                   15.018(3)
_cell_length_c                   16.673(3)
_cell_angle_alpha                74.51(3)
_cell_angle_beta                 76.80(3)
_cell_angle_gamma                78.27(3)
_cell_volume                     2270.05
loop_
_atom_site_label
_atom_site_type_symbol
_atom_site_fract_x
_atom_site_fract_y
_atom_site_fract_z
Cu1 Cu 0.66620(3) 0.504539(15) 0.371418(14)
C1 C 0.7889(2) 0.88890(12) 0.71466(12)
C2 C 0.7873(2) 0.91328(13) 0.79237(12)
C3 C 0.8152(2) 0.81672(13) 0.78784(11)
C4 C 0.7633(2) 0.91472(12) 0.63460(11)
C5 C 0.7650(2) 0.98033(13) 0.83634(12)
C6 C 0.8436(2) 0.72495(12) 0.82550(11)
C7 C 0.7457(2) 0.84364(12) 0.59285(11)
C8 C 0.6758(2) 0.76812(12) 0.63988(11)
H1 H 0.6374 0.7639 0.6983
C9 C 0.6620(2) 0.69962(13) 0.60215(12)
H2 H 0.6146 0.6485 0.6342
C10 C 0.7187(2) 0.70657(13) 0.51654(12)
C11 C 0.7034(2) 0.63642(14) 0.47653(13)
N1 N 0.6892(2) 0.58204(13) 0.44349(11)
C12 C 0.7852(2) 0.78254(14) 0.46757(12)
H3 H 0.8220 0.7870 0.4090
C13 C 0.7967(2) 0.85143(13) 0.50601(12)
H4 H 0.8395 0.9043 0.4732
C14 C 0.7466(2) 1.01386(12) 0.58893(11)
C15 C 0.6370(2) 1.04937(13) 0.54305(13)
H5 H 0.5740 1.0095 0.5416
C16 C 0.6187(2) 1.14221(13) 0.49952(13)
H6 H 0.5438 1.1661 0.4684
C17 C 0.7116(2) 1.20013(13) 0.50205(12)
C18 C 0.6921(2) 1.29651(13) 0.45661(12)
N2 N 0.67676(19) 1.37313(12) 0.42084(11)
C19 C 0.8219(2) 1.16625(13) 0.54807(13)
H7 H 0.8843 1.2064 0.5498
C20 C 0.8387(2) 1.07301(13) 0.59124(12)
H8 H 0.9133 1.0491 0.6226
C21 C 0.7184(2) 1.07895(13) 0.79520(12)
C22 C 0.6027(2) 1.10302(14) 0.75336(12)
H9 H 0.5532 1.0558 0.7509
C23 C 0.5601(2) 1.19568(14) 0.71535(13)
H10 H 0.4799 1.2124 0.6883
C24 C 0.6365(2) 1.26419(14) 0.71721(13)
C25 C 0.5915(2) 1.36024(14) 0.67787(13)
N3 N 0.5484(2) 1.43572(13) 0.64790(13)
C26 C 0.7518(3) 1.24123(14) 0.75815(14)
H11 H 0.8034 1.2882 0.7586
C27 C 0.7909(2) 1.14873(14) 0.79852(14)
H12 H 0.8674 1.1328 0.8286
C28 C 0.7843(2) 0.95779(13) 0.92503(12)
C29 C 0.6931(2) 1.00761(15) 0.98163(13)
H13 H 0.6237 1.0579 0.9617
C30 C 0.7036(3) 0.98409(17) 1.06641(14)
H14 H 0.6405 1.0171 1.1049
C31 C 0.8078(3) 0.91156(16) 1.09462(13)
C32 C 0.8164(3) 0.8849(2) 1.18337(15)
N4 N 0.8240(3) 0.8640(2) 1.25327(15)
C33 C 0.9033(2) 0.86376(15) 1.03877(13)
H15 H 0.9762 0.8159 1.0583
C34 C 0.8903(2) 0.88714(14) 0.95431(12)
H16 H 0.9545 0.8546 0.9159
C35 C 0.8300(2) 0.69559(12) 0.91879(11)
C36 C 0.7065(2) 0.72863(14) 0.97056(12)
H17 H 0.6344 0.7725 0.9456
C37 C 0.6884(2) 0.69790(14) 1.05799(13)
H18 H 0.6035 0.7193 1.0929
C38 C 0.7965(2) 0.63516(14) 1.09396(12)
C39 C 0.7742(2) 0.59686(14) 1.18392(13)
N5 N 0.7511(2) 0.56252(12) 1.25469(11)
C40 C 0.9220(2) 0.60416(13) 1.04331(12)
H19 H 0.9963 0.5631 1.0685
C41 C 0.9377(2) 0.63354(13) 0.95609(12)
H20 H 1.0223 0.6114 0.9213
C42 C 0.8778(2) 0.65289(12) 0.77561(11)
C43 C 0.8242(2) 0.56846(13) 0.80938(12)
H21 H 0.7739 0.5555 0.8661
C44 C 0.8438(2) 0.50334(13) 0.76072(13)
H22 H 0.8056 0.4466 0.7838
C45 C 0.9198(2) 0.52148(13) 0.67782(12)
C46 C 0.9355(2) 0.45426(15) 0.62712(14)
N6 N 0.9446(2) 0.40006(15) 0.58813(14)
C47 C 0.9793(2) 0.60376(14) 0.64436(12)
H23 H 1.0339 0.6151 0.5887
C48 C 0.9580(2) 0.66882(13) 0.69322(12)
H24 H 0.9982 0.7249 0.6706
Cu1_2 Cu 0.66620(3) 0.504539(15) 1.371418(14)
Cu1_3 Cu 0.66620(3) 1.504539(15) 0.371418(14)
Cu1A Cu 0.33380(3) 1.495461(15) 0.628582(14)
N2_2 N 0.67676(19) 0.37313(12) 0.42084(11)
N3A N 0.4516(2) 0.56428(13) 0.35210(13)
N5_2 N 0.7511(2) 0.56252(12) 0.25469(11)
P1 P 0.30108(6) 0.68290(4) 0.02091(4)
F1 F 0.34622(18) 0.77630(11) 0.02820(10)
F2 F 0.43646(18) 0.67134(13) -0.05164(11)
F3 F 0.2083(2) 0.74130(12) -0.04853(10)
F4 F 0.16378(15) 0.69435(10) 0.09393(8)
F5 F 0.39070(16) 0.62338(12) 0.09217(11)
F6 F 0.25725(17) 0.58833(10) 0.01412(10)
C49 C 0.5682(3) 0.4443(2) 0.17089(19)
H25 H 0.5335 0.4868 0.2092
H26 H 0.4872 0.4242 0.1589
H27 H 0.6224 0.4768 0.1179
N7 N 0.6609(2) 0.36172(17) 0.21122(14)
O1 O 0.78782(19) 0.36391(16) 0.19832(13)
O2 O 0.6051(3) 0.29536(17) 0.25756(15)
C50 C 0.8004(14) 0.1144(10) 0.2221(9)
H28 H 0.8071 0.1726 0.2360
H29 H 0.7848 0.1280 0.1638
H30 H 0.8888 0.0708 0.2277
N8 N 0.6819(4) 0.0728(2) 0.2797(2)
O3 O 0.6838(6) 0.0427(3) 0.3547(2)
O4 O 0.5779(3) 0.0753(2) 0.2490(2)
N9? N 0.7565(11) 0.0722(7) 0.3062(7)
O5? O 0.8447(11) 0.0550(7) 0.3474(7)
C51? C 0.8075(18) 0.1062(13) 0.2194(11)
H31? H 0.8768 0.0574 0.1973
H32? H 0.8532 0.1610 0.2118
H33? H 0.7280 0.1239 0.1888
O6? O 0.6319(13) 0.0540(9) 0.3276(9)
loop_
_geom_bond_atom_site_label_1
_geom_bond_atom_site_label_2
_geom_bond_site_symmetry_1
_geom_bond_site_symmetry_2
Cu1 N1 1_555 1_555
C1 C2 1_555 1_555
C2 C3 1_555 1_555
C3 C1 1_555 1_555
C4 C1 1_555 1_555
C5 C2 1_555 1_555
C6 C3 1_555 1_555
C7 C4 1_555 1_555
C8 C7 1_555 1_555
H1 C8 1_555 1_555
C9 C8 1_555 1_555
H2 C9 1_555 1_555
C10 C9 1_555 1_555
C11 C10 1_555 1_555
N1 C11 1_555 1_555
C12 C10 1_555 1_555
H3 C12 1_555 1_555
C13 C7 1_555 1_555
H4 C13 1_555 1_555
C14 C4 1_555 1_555
C15 C14 1_555 1_555
H5 C15 1_555 1_555
C16 C15 1_555 1_555
H6 C16 1_555 1_555
C17 C16 1_555 1_555
C18 C17 1_555 1_555
N2 C18 1_555 1_555
C19 C17 1_555 1_555
H7 C19 1_555 1_555
C20 C14 1_555 1_555
H8 C20 1_555 1_555
C21 C5 1_555 1_555
C22 C21 1_555 1_555
H9 C22 1_555 1_555
C23 C22 1_555 1_555
H10 C23 1_555 1_555
C24 C23 1_555 1_555
C25 C24 1_555 1_555
N3 C25 1_555 1_555
C26 C24 1_555 1_555
H11 C26 1_555 1_555
C27 C21 1_555 1_555
H12 C27 1_555 1_555
C28 C5 1_555 1_555
C29 C28 1_555 1_555
H13 C29 1_555 1_555
C30 C29 1_555 1_555
H14 C30 1_555 1_555
C31 C30 1_555 1_555
C32 C31 1_555 1_555
N4 C32 1_555 1_555
C33 C31 1_555 1_555
H15 C33 1_555 1_555
C34 C28 1_555 1_555
H16 C34 1_555 1_555
C35 C6 1_555 1_555
C36 C35 1_555 1_555
H17 C36 1_555 1_555
C37 C36 1_555 1_555
H18 C37 1_555 1_555
C38 C37 1_555 1_555
C39 C38 1_555 1_555
N5 C39 1_555 1_555
C40 C38 1_555 1_555
H19 C40 1_555 1_555
C41 C35 1_555 1_555
H20 C41 1_555 1_555
C42 C6 1_555 1_555
C43 C42 1_555 1_555
H21 C43 1_555 1_555
C44 C43 1_555 1_555
H22 C44 1_555 1_555
C45 C44 1_555 1_555
C46 C45 1_555 1_555
N6 C46 1_555 1_555
C47 C45 1_555 1_555
H23 C47 1_555 1_555
C48 C42 1_555 1_555
H24 C48 1_555 1_555
P1 F1 1_555 1_555
F2 P1 1_555 1_555
F3 P1 1_555 1_555
F4 P1 1_555 1_555
F5 P1 1_555 1_555
F6 P1 1_555 1_555
C49 H25 1_555 1_555
H26 C49 1_555 1_555
H27 C49 1_555 1_555
N7 C49 1_555 1_555
O1 N7 1_555 1_555
O2 N7 1_555 1_555
C50 H28 1_555 1_555
H29 C50 1_555 1_555
H30 C50 1_555 1_555
N8 C50 1_555 1_555
O3 N8 1_555 1_555
O4 N8 1_555 1_555
Cu1_2 N5 1_555 1_555
Cu1_3 N2 1_555 1_555
Cu1A N3 1_555 1_555
N2_2 Cu1 1_555 1_555
N3A Cu1 1_555 1_555
N5_2 Cu1 1_555 1_555
C12 C13 1_555 1_555
C19 C20 1_555 1_555
C26 C27 1_555 1_555
C33 C34 1_555 1_555
C40 C41 1_555 1_555
C47 C48 1_555 1_555

#END
