
#######################################################################
#
#                 Cambridge Crystallographic Data Centre
#                                CCDC 
#
#######################################################################
#
# If this CIF has been generated from an entry in the Cambridge 
# Structural Database, then it will include bibliographic, chemical, 
# crystal, experimental, refinement or atomic coordinate data resulting 
# from the CCDC's data processing and validation procedures.
#
#######################################################################

data_ZEWJIW
_symmetry_cell_setting           triclinic
_symmetry_space_group_name_H-M   'P -1'
_symmetry_Int_Tables_number      2
_space_group_name_Hall           '-P 1'
loop_
_symmetry_equiv_pos_site_id
_symmetry_equiv_pos_as_xyz
1 x,y,z
2 -x,-y,-z
_cell_length_a                   13.366(3)
_cell_length_b                   13.531(3)
_cell_length_c                   13.837(3)
_cell_angle_alpha                71.949(3)
_cell_angle_beta                 66.289(3)
_cell_angle_gamma                63.079(2)
_cell_volume                     2017.76
loop_
_atom_site_label
_atom_site_type_symbol
_atom_site_fract_x
_atom_site_fract_y
_atom_site_fract_z
O27 O 0.554(5) 0.398(4) 0.061(4)
O28 O 0.943(4) 0.114(3) 0.212(3)
O29 O 0.776(4) 0.312(3) 0.100(2)
Si1 Si 0.0000 0.5000 0.5000
W1 W 0.00336(8) 0.34336(7) 0.33606(7)
N1 N 0.574(2) 0.2309(19) 0.7879(17)
O1 O 0.294(2) 0.554(2) 0.769(2)
Ag1 Ag 0.4390(2) 0.3946(2) 0.7623(2)
O2 O 0.038(2) 0.494(2) 0.600(2)
C1 C 0.595(3) 0.144(3) 0.745(2)
H1 H 0.5519 0.1542 0.7009
W2 W -0.02392(8) 0.23660(6) 0.60928(7)
O3 O 0.141(2) 0.440(2) 0.4736(18)
C2 C 0.683(3) 0.035(3) 0.766(3)
H2 H 0.6950 -0.0272 0.7409
N2 N 0.897(2) 0.044(3) 0.930(3)
H3 H 0.9297 -0.0042 0.8871
O4 O 0.042(2) 0.379(2) 0.4752(19)
W3 W -0.03344(8) 0.39515(8) 0.77304(7)
C3 C 0.749(3) 0.029(3) 0.826(2)
H4 H 0.8108 -0.0382 0.8369
C4 C 0.726(2) 0.116(2) 0.868(2)
O5 O -0.0603(19) 0.4256(18) 0.6048(17)
W4 W 0.23879(8) 0.40795(8) 0.59508(8)
C5 C 0.637(2) 0.214(2) 0.844(2)
H5 H 0.6219 0.2752 0.8717
W5 W 0.27159(8) 0.51607(8) 0.32301(7)
O6 O 0.300(2) 0.4812(15) 0.4545(15)
C6 C 0.783(2) 0.116(2) 0.939(2)
W6 W 0.24494(8) 0.25362(7) 0.42807(8)
O7 O 0.282(2) 0.2846(16) 0.5353(17)
C7 C 0.957(7) 0.045(4) 0.984(7)
H6 H 0.8999 0.0759 1.0475
H7 H 0.9930 0.0992 0.9411
O8 O 0.1340(15) 0.3556(15) 0.718(2)
O9 O -0.0046(16) 0.2722(18) 0.7212(18)
O10 O -0.0398(13) 0.2624(19) 0.4726(12)
O11 O 0.1613(15) 0.273(2) 0.3386(14)
O12 O 0.305(2) 0.3632(16) 0.3293(15)
O13 O 0.1920(18) 0.5486(18) 0.2246(18)
O14 O 0.1846(16) 0.6625(16) 0.3498(16)
O15 O -0.1542(17) 0.4502(14) 0.365(2)
O16 O -0.0477(16) 0.5402(15) 0.766(2)
O17 O 0.1396(16) 0.192(2) 0.5438(15)
O18 O 0.3584(15) 0.1349(13) 0.3990(13)
O19 O 0.3546(15) 0.3587(14) 0.6403(14)
O20 O -0.0464(16) 0.3477(13) 0.9046(13)
O21 O -0.0332(15) 0.1110(12) 0.6565(14)
O22 O 0.0060(18) 0.2653(18) 0.2585(14)
O23 O 0.4020(14) 0.5226(14) 0.2396(15)
O24 O 0.7337(18) 0.1768(19) 1.0083(17)
Ag2 Ag 0.5185(2) 0.18961(18) 1.1467(2)
Ag3 Ag 0.5000 0.5000 1.5000
N3 N 0.6099(15) 0.3360(15) 1.4717(15)
N4 N 0.6295(17) 0.0174(14) 1.3812(14)
H8 H 0.6430 -0.0152 1.4413
N5 N 0.7334(16) -0.1549(13) 1.1675(15)
H9 H 0.7760 -0.2253 1.1765
N6 N 0.6161(16) -0.2387(14) 0.9290(14)
C8 C 0.7072(19) 0.2753(17) 1.5061(17)
H10 H 0.7253 0.3116 1.5403
C9 C 0.7783(19) 0.1691(18) 1.495(2)
H11 H 0.8442 0.1336 1.5186
C10 C 0.750(2) 0.113(2) 1.4465(18)
H12 H 0.7947 0.0377 1.4406
C11 C 0.6551(18) 0.1695(18) 1.4074(16)
C12 C 0.5878(17) 0.2780(16) 1.4221(18)
H13 H 0.5229 0.3151 1.3971
C13 C 0.6217(18) 0.1220(16) 1.3454(17)
C14 C 0.616(2) -0.0439(19) 1.3206(19)
H14 H 0.5503 0.0038 1.2924
H15 H 0.5994 -0.1089 1.3666
C15 C 0.731(2) -0.0814(17) 1.2281(18)
H16 H 0.7423 -0.0153 1.1795
H17 H 0.7969 -0.1206 1.2570
C16 C 0.6731(16) -0.1172(15) 1.1004(16)
C17 C 0.6847(17) -0.2025(17) 1.0439(14)
C18 C 0.775(2) -0.3089(19) 1.0408(19)
H18 H 0.8329 -0.3295 1.0727
C19 C 0.777(2) -0.382(2) 0.989(2)
H19 H 0.8289 -0.4565 0.9933
C20 C 0.697(2) -0.340(2) 0.9295(19)
H20 H 0.7026 -0.3866 0.8889
C21 C 0.6132(19) -0.1711(17) 0.9831(17)
H21 H 0.5589 -0.0975 0.9791
O25 O 0.5984(14) 0.1793(12) 1.2623(12)
O26 O 0.6089(15) -0.0180(12) 1.0822(13)
O2A O -0.038(2) 0.506(2) 0.400(2)
O3A O -0.141(2) 0.560(2) 0.5264(18)
O4A O -0.042(2) 0.621(2) 0.5248(19)
O5A O 0.0603(19) 0.5744(18) 0.3952(17)
N1A N 1.426(2) -0.2309(19) 1.2121(17)
C1A C 1.405(3) -0.144(3) 1.255(2)
H1A H 1.4481 -0.1542 1.2991
C2A C 1.317(3) -0.035(3) 1.234(3)
H2A H 1.3050 0.0272 1.2591
N2A N 1.103(2) -0.044(3) 1.070(3)
H3A H 1.0703 0.0042 1.1129
C3A C 1.251(3) -0.029(3) 1.174(2)
H4A H 1.1892 0.0382 1.1631
C4A C 1.274(2) -0.116(2) 1.132(2)
C5A C 1.363(2) -0.214(2) 1.156(2)
H5A H 1.3781 -0.2752 1.1283
C6A C 1.217(2) -0.116(2) 1.061(2)
C7A C 1.043(7) -0.045(4) 1.016(7)
H6A H 1.1001 -0.0759 0.9525
H7A H 1.0070 -0.0992 1.0589
O24A O 1.2663(18) -0.1768(19) 0.9917(17)
W1A W -0.00336(8) 0.65664(7) 0.66394(7)
O1A O -0.294(2) 0.446(2) 0.231(2)
Ag1A Ag -0.4390(2) 0.6054(2) 0.2377(2)
W2A W 0.02392(8) 0.76340(6) 0.39072(7)
W3A W 0.03344(8) 0.60485(8) 0.22696(7)
W4A W -0.23879(8) 0.59205(8) 0.40492(8)
W5A W -0.27159(8) 0.48393(8) 0.67699(7)
O6A O -0.300(2) 0.5188(15) 0.5455(15)
W6A W -0.24494(8) 0.74638(7) 0.57193(8)
O7A O -0.282(2) 0.7154(16) 0.4647(17)
O8A O -0.1340(15) 0.6444(15) 0.282(2)
O9A O 0.0046(16) 0.7278(18) 0.2788(18)
O10A O 0.0398(13) 0.7376(19) 0.5274(12)
O11A O -0.1613(15) 0.727(2) 0.6614(14)
O12A O -0.305(2) 0.6368(16) 0.6707(15)
O13A O -0.1920(18) 0.4514(18) 0.7754(18)
O14A O -0.1846(16) 0.3375(16) 0.6502(16)
O15A O 0.1542(17) 0.5498(14) 0.635(2)
O16A O 0.0477(16) 0.4598(15) 0.234(2)
O17A O -0.1396(16) 0.808(2) 0.4562(15)
O18A O -0.3584(15) 0.8651(13) 0.6010(13)
O19A O -0.3546(15) 0.6413(14) 0.3597(14)
O20A O 0.0464(16) 0.6523(13) 0.0954(13)
O21A O 0.0332(15) 0.8890(12) 0.3435(14)
O22A O -0.0060(18) 0.7347(18) 0.7415(14)
O23A O -0.4020(14) 0.4774(14) 0.7604(15)
Ag2A Ag 0.4815(2) -0.18961(18) 0.8533(2)
N3A N 0.3901(15) -0.3360(15) 0.5283(15)
N4A N 0.3705(17) -0.0174(14) 0.6188(14)
H8A H 0.3570 0.0152 0.5587
N5A N 0.2666(16) 0.1549(13) 0.8325(15)
H9A H 0.2240 0.2253 0.8235
N6A N 0.3839(16) 0.2387(14) 1.0710(14)
C8A C 0.2928(19) -0.2753(17) 0.4939(17)
H10A H 0.2747 -0.3116 0.4597
C9A C 0.2217(19) -0.1691(18) 0.505(2)
H11A H 0.1558 -0.1336 0.4814
C10A C 0.250(2) -0.113(2) 0.5535(18)
H12A H 0.2053 -0.0377 0.5594
C11A C 0.3449(18) -0.1695(18) 0.5926(16)
C12A C 0.4122(17) -0.2780(16) 0.5779(18)
H13A H 0.4771 -0.3151 0.6029
C13A C 0.3783(18) -0.1220(16) 0.6546(17)
C14A C 0.384(2) 0.0439(19) 0.6794(19)
H14A H 0.4497 -0.0038 0.7076
H15A H 0.4006 0.1089 0.6334
C15A C 0.269(2) 0.0814(17) 0.7719(18)
H16A H 0.2577 0.0153 0.8205
H17A H 0.2031 0.1206 0.7430
C16A C 0.3269(16) 0.1172(15) 0.8996(16)
C17A C 0.3153(17) 0.2025(17) 0.9561(14)
C18A C 0.225(2) 0.3089(19) 0.9592(19)
H18A H 0.1671 0.3295 0.9273
C19A C 0.223(2) 0.382(2) 1.011(2)
H19A H 0.1711 0.4565 1.0067
C20A C 0.303(2) 0.340(2) 1.0705(19)
H20A H 0.2974 0.3866 1.1111
C21A C 0.3868(19) 0.1711(17) 1.0169(17)
H21A H 0.4411 0.0975 1.0209
O25A O 0.4016(14) -0.1793(12) 0.7377(12)
O26A O 0.3911(15) 0.0180(12) 0.9178(13)
N1A_2 N -0.574(2) 0.7691(19) 0.2121(17)
Ag1A_2 Ag 1.5610(2) -0.3946(2) 1.2377(2)
O24A_2 O 0.2663(18) -0.1768(19) 0.9917(17)
Ag2A_2 Ag 1.4815(2) -0.18961(18) 0.8533(2)
Ag3_2 Ag 0.5000 -0.5000 0.5000
N3A_2 N 0.3901(15) 0.6640(15) 1.5283(15)
loop_
_geom_bond_atom_site_label_1
_geom_bond_atom_site_label_2
_geom_bond_site_symmetry_1
_geom_bond_site_symmetry_2
Si1 O2 1_555 1_555
W1 O4 1_555 1_555
N1 Ag1 1_555 1_555
O1 Ag1 1_555 1_555
Ag1 O19 1_555 1_555
O2 W3 1_555 1_555
C1 N1 1_555 1_555
H1 C1 1_555 1_555
W2 O4 1_555 1_555
O3 Si1 1_555 1_555
C2 C1 1_555 1_555
H2 C2 1_555 1_555
N2 H3 1_555 1_555
O4 Si1 1_555 1_555
W3 O5 1_555 1_555
C3 C2 1_555 1_555
H4 C3 1_555 1_555
C4 C3 1_555 1_555
O5 Si1 1_555 1_555
W4 O2 1_555 1_555
C5 N1 1_555 1_555
H5 C5 1_555 1_555
W5 O3 1_555 1_555
O6 W4 1_555 1_555
C6 N2 1_555 1_555
W6 O3 1_555 1_555
O7 W4 1_555 1_555
C7 N2 1_555 1_555
H6 C7 1_555 1_555
H7 C7 1_555 1_555
O8 W3 1_555 1_555
O9 W2 1_555 1_555
O10 W1 1_555 1_555
O11 W1 1_555 1_555
O12 W5 1_555 1_555
O13 W5 1_555 1_555
O14 W5 1_555 1_555
O15 W1 1_555 1_555
O16 W3 1_555 1_555
O17 W2 1_555 1_555
O18 W6 1_555 1_555
O19 W4 1_555 1_555
O20 W3 1_555 1_555
O21 W2 1_555 1_555
O22 W1 1_555 1_555
O23 W5 1_555 1_555
O24 C6 1_555 1_555
Ag2 O24 1_555 1_555
Ag3 N3 1_555 1_555
N3 C8 1_555 1_555
N4 H8 1_555 1_555
N5 H9 1_555 1_555
N6 C20 1_555 1_555
C8 H10 1_555 1_555
C9 C8 1_555 1_555
H11 C9 1_555 1_555
C10 C9 1_555 1_555
H12 C10 1_555 1_555
C11 C10 1_555 1_555
C12 N3 1_555 1_555
H13 C12 1_555 1_555
C13 N4 1_555 1_555
C14 N4 1_555 1_555
H14 C14 1_555 1_555
H15 C14 1_555 1_555
C15 N5 1_555 1_555
H16 C15 1_555 1_555
H17 C15 1_555 1_555
C16 N5 1_555 1_555
C17 C16 1_555 1_555
C18 C17 1_555 1_555
H18 C18 1_555 1_555
C19 C18 1_555 1_555
H19 C19 1_555 1_555
C20 C19 1_555 1_555
H20 C20 1_555 1_555
C21 N6 1_555 1_555
H21 C21 1_555 1_555
O25 Ag2 1_555 1_555
O26 C16 1_555 1_555
O2A Si1 1_555 1_555
O3A Si1 1_555 1_555
O4A Si1 1_555 1_555
O5A Si1 1_555 1_555
N1A C1A 1_555 1_555
C1A H1A 1_555 1_555
C2A C1A 1_555 1_555
H2A C2A 1_555 1_555
N2A H3A 1_555 1_555
C3A C2A 1_555 1_555
H4A C3A 1_555 1_555
C4A C3A 1_555 1_555
C5A N1A 1_555 1_555
H5A C5A 1_555 1_555
C6A N2A 1_555 1_555
C7A C7 1_555 1_555
H6A C7A 1_555 1_555
H7A C7A 1_555 1_555
O24A C6A 1_555 1_555
W1A O2 1_555 1_555
O1A Ag1A 1_555 1_555
Ag1A O19A 1_555 1_555
W2A O14 1_555 1_555
W3A O13 1_555 1_555
W4A O15 1_555 1_555
W5A O5 1_555 1_555
O6A W4A 1_555 1_555
W6A O3A 1_555 1_555
O7A W4A 1_555 1_555
O8A W3A 1_555 1_555
O9A W2A 1_555 1_555
O10A W1A 1_555 1_555
O11A W1A 1_555 1_555
O12A W5A 1_555 1_555
O13A W3 1_555 1_555
O14A W2 1_555 1_555
O15A W4 1_555 1_555
O16A W1 1_555 1_555
O17A W2A 1_555 1_555
O18A W6A 1_555 1_555
O19A W4A 1_555 1_555
O20A W3A 1_555 1_555
O21A W2A 1_555 1_555
O22A W1A 1_555 1_555
O23A W5A 1_555 1_555
Ag2A N6 1_555 1_555
N3A C8A 1_555 1_555
N4A H8A 1_555 1_555
N5A H9A 1_555 1_555
N6A Ag2 1_555 1_555
C8A H10A 1_555 1_555
C9A C8A 1_555 1_555
H11A C9A 1_555 1_555
C10A C9A 1_555 1_555
H12A C10A 1_555 1_555
C11A C10A 1_555 1_555
C12A N3A 1_555 1_555
H13A C12A 1_555 1_555
C13A N4A 1_555 1_555
C14A N4A 1_555 1_555
H14A C14A 1_555 1_555
H15A C14A 1_555 1_555
C15A N5A 1_555 1_555
H16A C15A 1_555 1_555
H17A C15A 1_555 1_555
C16A N5A 1_555 1_555
C17A C16A 1_555 1_555
C18A C17A 1_555 1_555
H18A C18A 1_555 1_555
C19A C18A 1_555 1_555
H19A C19A 1_555 1_555
C20A N6A 1_555 1_555
H20A C20A 1_555 1_555
C21A N6A 1_555 1_555
H21A C21A 1_555 1_555
O25A Ag2A 1_555 1_555
O26A C16A 1_555 1_555
N1A_2 Ag1A 1_555 1_555
Ag1A_2 N1A 1_555 1_555
O24A_2 Ag2A 1_555 1_555
Ag2A_2 O24A 1_555 1_555
Ag3_2 N3A 1_555 1_555
N3A_2 Ag3 1_555 1_555
W1 O2A 1_555 1_555
W2 O5 1_555 1_555
W2 O10 1_555 1_555
O3 W4 1_555 1_555
O4 W6 1_555 1_555
W3 O9 1_555 1_555
C4 C5 1_555 1_555
C4 C6 1_555 1_555
W4 O8 1_555 1_555
W5 O6 1_555 1_555
W5 O5A 1_555 1_555
W6 O7 1_555 1_555
W6 O11 1_555 1_555
W6 O12 1_555 1_555
W6 O17 1_555 1_555
O16 W1A 1_555 1_555
C11 C12 1_555 1_555
C11 C13 1_555 1_555
C13 O25 1_555 1_555
C14 C15 1_555 1_555
C17 C21 1_555 1_555
O2A W3A 1_555 1_555
O2A W4A 1_555 1_555
O3A W4A 1_555 1_555
O3A W5A 1_555 1_555
O4A W1A 1_555 1_555
O4A W2A 1_555 1_555
O4A W6A 1_555 1_555
O5A W2A 1_555 1_555
O5A W3A 1_555 1_555
N2A C7A 1_555 1_555
C4A C5A 1_555 1_555
C4A C6A 1_555 1_555
W1A O15A 1_555 1_555
W2A O10A 1_555 1_555
W3A O9A 1_555 1_555
W3A O16A 1_555 1_555
W4A O8A 1_555 1_555
W5A O6A 1_555 1_555
W5A O13A 1_555 1_555
W5A O14A 1_555 1_555
W6A O7A 1_555 1_555
W6A O11A 1_555 1_555
W6A O12A 1_555 1_555
W6A O17A 1_555 1_555
C11A C12A 1_555 1_555
C11A C13A 1_555 1_555
C13A O25A 1_555 1_555
C14A C15A 1_555 1_555
C17A C21A 1_555 1_555
C19A C20A 1_555 1_555

#END
