
#######################################################################
#
#                 Cambridge Crystallographic Data Centre
#                                CCDC 
#
#######################################################################
#
# If this CIF has been generated from an entry in the Cambridge 
# Structural Database, then it will include bibliographic, chemical, 
# crystal, experimental, refinement or atomic coordinate data resulting 
# from the CCDC's data processing and validation procedures.
#
#######################################################################

data_ZEWNAS
_symmetry_cell_setting           monoclinic
_symmetry_space_group_name_H-M   'C 2/c'
_symmetry_Int_Tables_number      15
_space_group_name_Hall           '-C 2yn'
loop_
_symmetry_equiv_pos_site_id
_symmetry_equiv_pos_as_xyz
1 x,y,z
2 -x,y,1/2-z
3 1/2+x,1/2+y,z
4 1/2-x,1/2+y,1/2-z
5 -x,-y,-z
6 x,-y,1/2+z
7 1/2-x,1/2-y,-z
8 1/2+x,1/2-y,1/2+z
_cell_length_a                   6.672(3)
_cell_length_b                   19.487(7)
_cell_length_c                   11.805(4)
_cell_angle_alpha                90
_cell_angle_beta                 91.736(4)
_cell_angle_gamma                90
_cell_volume                     1534.15
loop_
_atom_site_label
_atom_site_type_symbol
_atom_site_fract_x
_atom_site_fract_y
_atom_site_fract_z
Ni1 Ni 0.5000 0.0000 1.0000
Mn1 Mn 0.0000 0.122734(18) 0.7500
N1 N 0.2256(3) 0.10952(9) 0.90077(16)
C1 C 0.3289(3) 0.06896(10) 0.94249(16)
N2 N 0.1847(3) -0.05537(9) 1.15107(16)
C2 C 0.3002(3) -0.03326(10) 1.09175(16)
N3 N 0.1737(2) 0.21686(8) 0.69235(13)
C3 C 0.3437(3) 0.21664(11) 0.63682(17)
H1 H 0.4014 0.1746 0.6196
C4 C 0.4403(4) 0.27671(13) 0.60294(19)
H2 H 0.5585 0.2744 0.5633
C5 C 0.3589(4) 0.33848(13) 0.6287(2)
H3 H 0.4211 0.3788 0.6064
C6 C 0.1807(4) 0.34148(10) 0.68914(18)
C7 C 0.0921(3) 0.27850(9) 0.71910(16)
C8 C 0.0862(4) 0.40417(11) 0.7214(2)
H4 H 0.1448 0.4458 0.7026
N3A N -0.1737(2) 0.21686(8) 0.80765(13)
C3A C -0.3437(3) 0.21664(11) 0.86318(17)
H1A H -0.4014 0.1746 0.8804
C4A C -0.4403(4) 0.27671(13) 0.89706(19)
H2A H -0.5585 0.2744 0.9367
C5A C -0.3589(4) 0.33848(13) 0.8713(2)
H3A H -0.4211 0.3788 0.8936
C6A C -0.1807(4) 0.34148(10) 0.81086(18)
C7A C -0.0921(3) 0.27850(9) 0.78090(16)
C8A C -0.0862(4) 0.40417(11) 0.7786(2)
H4A H -0.1448 0.4458 0.7974
N1A N -0.2256(3) 0.10952(9) 0.59923(16)
C1A C -0.3289(3) 0.06896(10) 0.55751(16)
N2D N 0.8153(3) 0.05537(9) 0.84893(16)
C2D C 0.6998(3) 0.03326(10) 0.90825(16)
Ni1A Ni -0.5000 0.0000 0.5000
Mn1_2 Mn 1.0000 0.122734(18) 0.7500
Mn1D Mn 0.0000 -0.122734(18) 1.2500
C1D C 0.6711(3) -0.06896(10) 1.05751(16)
N2D_2 N -0.1847(3) 0.05537(9) 0.84893(16)
N2E N 0.1847(3) 0.05537(9) 0.65107(16)
loop_
_geom_bond_atom_site_label_1
_geom_bond_atom_site_label_2
_geom_bond_site_symmetry_1
_geom_bond_site_symmetry_2
Ni1 C1 1_555 1_555
Mn1 N1 1_555 1_555
N1 C1 1_555 1_555
N2 C2 1_555 1_555
C2 Ni1 1_555 1_555
N3 Mn1 1_555 1_555
C3 N3 1_555 1_555
H1 C3 1_555 1_555
C4 C3 1_555 1_555
H2 C4 1_555 1_555
C5 C4 1_555 1_555
H3 C5 1_555 1_555
C6 C5 1_555 1_555
C7 N3 1_555 1_555
C8 C6 1_555 1_555
H4 C8 1_555 1_555
N3A Mn1 1_555 1_555
C3A N3A 1_555 1_555
H1A C3A 1_555 1_555
C4A C3A 1_555 1_555
H2A C4A 1_555 1_555
C5A C4A 1_555 1_555
H3A C5A 1_555 1_555
C6A C5A 1_555 1_555
C7A C7 1_555 1_555
C8A C8 1_555 1_555
H4A C8A 1_555 1_555
N1A Mn1 1_555 1_555
C1A N1A 1_555 1_555
N2D C2D 1_555 1_555
C2D Ni1 1_555 1_555
Ni1A C1A 1_555 1_555
Mn1_2 N2D 1_555 1_555
Mn1D N2 1_555 1_555
C1D Ni1 1_555 1_555
N2D_2 Mn1 1_555 1_555
N2E Mn1 1_555 1_555
C6 C7 1_555 1_555
N3A C7A 1_555 1_555
C6A C7A 1_555 1_555
C6A C8A 1_555 1_555

#END
