
#######################################################################
#
#                 Cambridge Crystallographic Data Centre
#                                CCDC 
#
#######################################################################
#
# If this CIF has been generated from an entry in the Cambridge 
# Structural Database, then it will include bibliographic, chemical, 
# crystal, experimental, refinement or atomic coordinate data resulting 
# from the CCDC's data processing and validation procedures.
#
#######################################################################

data_ZEZCUE
_symmetry_cell_setting           monoclinic
_symmetry_space_group_name_H-M   'C 2/c'
_symmetry_Int_Tables_number      15
_space_group_name_Hall           '-C 2yn'
loop_
_symmetry_equiv_pos_site_id
_symmetry_equiv_pos_as_xyz
1 x,y,z
2 -x,y,1/2-z
3 1/2+x,1/2+y,z
4 1/2-x,1/2+y,1/2-z
5 -x,-y,-z
6 x,-y,1/2+z
7 1/2-x,1/2-y,-z
8 1/2+x,1/2-y,1/2+z
_cell_length_a                   47.396(9)
_cell_length_b                   12.8286(17)
_cell_length_c                   21.193(4)
_cell_angle_alpha                90
_cell_angle_beta                 103.066(14)
_cell_angle_gamma                90
_cell_volume                     12552.2
loop_
_atom_site_label
_atom_site_type_symbol
_atom_site_fract_x
_atom_site_fract_y
_atom_site_fract_z
Ag1 Ag 0.117460(13) 0.48768(4) -0.21166(3)
Ag2 Ag 0.123358(15) 0.53989(4) -0.06708(3)
Ag3 Ag 0.103122(17) 0.67360(7) 0.08108(3)
N1 N 0.16560(15) 0.4678(5) -0.1905(3)
N2 N 0.12814(15) 0.3129(4) -0.2404(3)
S1 S 0.07477(4) 0.39182(14) -0.33266(8)
C1 C 0.1847(2) 0.5501(7) -0.1757(4)
H1 H 0.1768 0.6182 -0.1757
C2 C 0.2138(2) 0.5408(8) -0.1613(5)
H2 H 0.2259 0.6000 -0.1502
C3 C 0.2254(2) 0.4422(10) -0.1630(5)
H3 H 0.2458 0.4327 -0.1534
C4 C 0.2070(2) 0.3573(9) -0.1790(4)
H4 H 0.2147 0.2894 -0.1816
C5 C 0.1770(2) 0.3731(7) -0.1914(4)
C6 C 0.15582(19) 0.2852(6) -0.2120(4)
C7 C 0.1649(3) 0.1815(8) -0.2030(4)
H5 H 0.1844 0.1639 -0.1834
C8 C 0.1440(3) 0.1053(7) -0.2241(5)
H6 H 0.1491 0.0338 -0.2184
C9 C 0.1164(2) 0.1317(6) -0.2525(4)
H7 H 0.1024 0.0788 -0.2672
C10 C 0.10852(19) 0.2368(6) -0.2604(3)
C11 C 0.07956(19) 0.2716(6) -0.2950(3)
C12 C 0.0541(2) 0.2164(7) -0.3076(4)
H8 H 0.0522 0.1484 -0.2913
C13 C 0.0313(2) 0.2703(8) -0.3469(5)
H9 H 0.0122 0.2430 -0.3598
C14 C 0.03892(19) 0.3660(7) -0.3649(4)
H10 H 0.0260 0.4126 -0.3920
N3 N 0.10419(16) 0.3841(5) -0.0978(3)
N4 N 0.07610(14) 0.5386(4) -0.1869(3)
S2 S 0.11577(5) 0.70279(15) -0.22945(9)
C15 C 0.1190(2) 0.2988(6) -0.0753(4)
H11 H 0.1382 0.3054 -0.0500
C16 C 0.1069(2) 0.2000(6) -0.0882(4)
H12 H 0.1182 0.1402 -0.0725
C17 C 0.0799(2) 0.1880(6) -0.1221(4)
H13 H 0.0717 0.1203 -0.1294
C18 C 0.0638(2) 0.2752(6) -0.1468(4)
H14 H 0.0446 0.2685 -0.1719
C19 C 0.07668(18) 0.3728(5) -0.1338(3)
C20 C 0.06104(18) 0.4689(5) -0.1592(3)
C21 C 0.03321(19) 0.4852(7) -0.1536(4)
H15 H 0.0233 0.4327 -0.1355
C22 C 0.01963(18) 0.5770(7) -0.1741(4)
H16 H 0.0004 0.5905 -0.1699
C23 C 0.03508(18) 0.6504(6) -0.2014(3)
H17 H 0.0262 0.7154 -0.2154
C24 C 0.06242(15) 0.6315(5) -0.2087(3)
C25 C 0.07838(16) 0.7068(5) -0.2377(3)
C26 C 0.0665(2) 0.7926(6) -0.2732(4)
H18 H 0.0466 0.8103 -0.2822
C27 C 0.0883(2) 0.8517(6) -0.2949(4)
H19 H 0.0839 0.9127 -0.3207
C28 C 0.1157(2) 0.8132(6) -0.2753(4)
H20 H 0.1324 0.8432 -0.2857
N5 N 0.17135(18) 0.5736(7) -0.0315(3)
N6 N 0.12898(16) 0.7260(5) -0.0565(3)
S3 S 0.07240(5) 0.65795(14) -0.03343(8)
C29 C 0.1912(2) 0.5028(10) -0.0081(5)
H21 H 0.1857 0.4314 -0.0111
C30 C 0.2188(3) 0.5277(13) 0.0199(5)
H22 H 0.2322 0.4736 0.0361
C31 C 0.2279(3) 0.6285(15) 0.0257(6)
H23 H 0.2473 0.6462 0.0464
C32 C 0.2083(3) 0.7022(14) 0.0006(6)
H24 H 0.2139 0.7734 0.0023
C33 C 0.1793(2) 0.6736(8) -0.0283(4)
C34 C 0.1565(2) 0.7539(7) -0.0541(4)
C35 C 0.1631(3) 0.8518(8) -0.0749(5)
H25 H 0.1828 0.8686 -0.0736
C36 C 0.1433(3) 0.9213(8) -0.0959(7)
H26 H 0.1485 0.9876 -0.1098
C37 C 0.1139(3) 0.8978(6) -0.0981(5)
H27 H 0.0989 0.9470 -0.1134
C38 C 0.1079(2) 0.7977(5) -0.0763(3)
C39 C 0.0796(2) 0.7736(5) -0.0692(3)
C40 C 0.0543(3) 0.8328(7) -0.0847(4)
H28 H 0.0530 0.8977 -0.1067
C41 C 0.0312(3) 0.7877(8) -0.0649(5)
H29 H 0.0127 0.8199 -0.0715
C42 C 0.0371(2) 0.6940(9) -0.0354(4)
H30 H 0.0237 0.6538 -0.0183
N7 N 0.1061(3) 0.8699(10) 0.0823(6)
N8 N 0.1525(2) 0.7433(9) 0.1154(5)
S4 S 0.13321(8) 0.4999(3) 0.0879(2)
C43 C 0.0831(5) 0.9386(12) 0.0605(7)
H31 H 0.0639 0.9120 0.0536
C44 C 0.0863(4) 1.0357(10) 0.0491(8)
H32 H 0.0708 1.0832 0.0342
C45 C 0.1165(5) 1.0625(14) 0.0622(7)
H33 H 0.1197 1.1335 0.0531
C46 C 0.1407(4) 1.0111(13) 0.0838(7)
H34 H 0.1595 1.0408 0.0907
C47 C 0.1348(4) 0.9014(11) 0.0957(5)
C48 C 0.1593(3) 0.8301(14) 0.1220(6)
C49 C 0.1863(5) 0.8633(13) 0.1462(7)
H35 H 0.1908 0.9356 0.1508
C50 C 0.2067(5) 0.7915(19) 0.1636(10)
H36 H 0.2260 0.8169 0.1768
C51 C 0.2040(4) 0.700(2) 0.1648(7)
H37 H 0.2198 0.6545 0.1812
C52 C 0.1709(3) 0.6582(11) 0.1356(6)
C53 C 0.1654(3) 0.5464(10) 0.1325(6)
C54 C 0.1850(4) 0.4663(12) 0.1557(9)
H38 H 0.2050 0.4726 0.1761
C55 C 0.1688(4) 0.3754(11) 0.1423(9)
H39 H 0.1770 0.3116 0.1605
C56 C 0.1437(5) 0.3744(11) 0.1071(9)
H40 H 0.1324 0.3139 0.0933
Ag3E Ag 0.103122(17) 0.32640(7) -0.41892(3)
S1E S 0.07477(4) 0.60818(14) 0.16734(8)
P1 P 0.21127(5) 0.1355(2) 0.27989(13)
F1 F 0.19612(17) 0.0508(6) 0.3168(5)
F2 F 0.18604(16) 0.2146(6) 0.2837(5)
F3 F 0.2285(2) 0.1790(8) 0.3464(4)
F4 F 0.23694(16) 0.0585(7) 0.2796(5)
F5 F 0.1934(3) 0.0990(10) 0.2130(6)
F6 F 0.22767(19) 0.2212(7) 0.2494(4)
P2 P 0.04901(5) 0.35291(15) 0.04223(10)
F7 F 0.03945(19) 0.2476(5) 0.0686(4)
F8 F 0.02851(18) 0.3286(7) -0.0242(3)
F9 F 0.02435(18) 0.4123(7) 0.0640(6)
F10 F 0.0702(2) 0.3801(6) 0.1105(3)
F11 F 0.07491(18) 0.2954(6) 0.0212(5)
F12 F 0.05933(18) 0.4577(5) 0.0169(4)
P3 P 0.20676(12) 0.1616(4) 0.0037(3)
F13 F 0.2098(4) 0.0550(10) 0.0446(6)
F14 F 0.1737(3) 0.1621(15) -0.0179(14)
F15 F 0.2084(4) 0.2302(13) 0.0633(7)
F16 F 0.2376(5) 0.1631(15) 0.0176(11)
F17 F 0.2064(4) 0.0911(14) -0.0506(8)
F18 F 0.2022(6) 0.2505(19) -0.0335(10)
P4 P 0.0000 0.9952(2) 0.2500
F19 F 0.0000 1.1193(5) 0.2500
F20 F 0.03370(14) 0.9955(5) 0.2828(4)
F21 F 0.0000 0.8716(5) 0.2500
F22 F 0.0083(2) 0.9930(6) 0.1817(4)
F20A F -0.03370(14) 0.9955(5) 0.2172(4)
F22A F -0.0083(2) 0.9930(6) 0.3183(4)
O1 O 0.2403(5) 0.1374(16) -0.1359(12)
N9? N 0.1424(5) 0.5349(15) 0.1129(8)
N10? N 0.1457(4) 0.7207(12) 0.1096(7)
C57? C 0.1387(4) 0.437(2) 0.1117(12)
H41? H 0.1198 0.4148 0.0907
C58? C 0.1593(6) 0.3501(15) 0.1383(12)
H42? H 0.1558 0.2775 0.1411
C59? C 0.1855(4) 0.407(2) 0.1581(11)
H43? H 0.2029 0.3684 0.1696
C60? C 0.1879(6) 0.5122(17) 0.1622(11)
H44? H 0.2050 0.5381 0.1900
C61? C 0.1703(4) 0.5797(17) 0.1339(10)
C62? C 0.1759(4) 0.6885(16) 0.1379(9)
C63? C 0.1961(6) 0.7184(12) 0.1564(15)
H45? H 0.2118 0.6717 0.1697
C64? C 0.2013(5) 0.8254(12) 0.1628(19)
H46? H 0.2195 0.8487 0.1871
C65? C 0.1805(5) 0.8998(16) 0.1346(13)
H47? H 0.1844 0.9721 0.1318
C66? C 0.1503(4) 0.8489(14) 0.1084(7)
S5? S 0.09119(19) 0.8807(5) 0.0815(3)
C67? C 0.1254(3) 0.9187(10) 0.0822(9)
C68? C 0.1272(3) 1.0200(10) 0.0657(9)
H48? H 0.1441 1.0573 0.0627
C69? C 0.0989(3) 1.0581(10) 0.0539(14)
H49? H 0.0959 1.1311 0.0485
C70? C 0.0756(4) 0.9957(11) 0.0498(11)
H50? H 0.0557 1.0114 0.0336
O2? O 0.2141(3) 0.0135(9) 0.0271(7)
O3? O 0.1935(7) 0.213(3) 0.0417(16)
loop_
_geom_bond_atom_site_label_1
_geom_bond_atom_site_label_2
_geom_bond_site_symmetry_1
_geom_bond_site_symmetry_2
Ag1 N1 1_555 1_555
Ag2 N3 1_555 1_555
Ag3 S3 1_555 1_555
N1 C1 1_555 1_555
N2 Ag1 1_555 1_555
S1 C11 1_555 1_555
C1 H1 1_555 1_555
C2 C1 1_555 1_555
H2 C2 1_555 1_555
C3 C2 1_555 1_555
H3 C3 1_555 1_555
C4 C3 1_555 1_555
H4 C4 1_555 1_555
C5 N1 1_555 1_555
C6 N2 1_555 1_555
C7 C6 1_555 1_555
H5 C7 1_555 1_555
C8 C7 1_555 1_555
H6 C8 1_555 1_555
C9 C8 1_555 1_555
H7 C9 1_555 1_555
C10 N2 1_555 1_555
C11 C10 1_555 1_555
C12 C11 1_555 1_555
H8 C12 1_555 1_555
C13 C12 1_555 1_555
H9 C13 1_555 1_555
C14 S1 1_555 1_555
H10 C14 1_555 1_555
N3 C15 1_555 1_555
N4 Ag1 1_555 1_555
S2 Ag1 1_555 1_555
C15 H11 1_555 1_555
C16 C15 1_555 1_555
H12 C16 1_555 1_555
C17 C16 1_555 1_555
H13 C17 1_555 1_555
C18 C17 1_555 1_555
H14 C18 1_555 1_555
C19 N3 1_555 1_555
C20 N4 1_555 1_555
C21 C20 1_555 1_555
H15 C21 1_555 1_555
C22 C21 1_555 1_555
H16 C22 1_555 1_555
C23 C22 1_555 1_555
H17 C23 1_555 1_555
C24 N4 1_555 1_555
C25 S2 1_555 1_555
C26 C25 1_555 1_555
H18 C26 1_555 1_555
C27 C26 1_555 1_555
H19 C27 1_555 1_555
C28 S2 1_555 1_555
H20 C28 1_555 1_555
N5 Ag2 1_555 1_555
N6 Ag2 1_555 1_555
S3 C39 1_555 1_555
C29 N5 1_555 1_555
H21 C29 1_555 1_555
C30 C29 1_555 1_555
H22 C30 1_555 1_555
C31 C30 1_555 1_555
H23 C31 1_555 1_555
C32 C31 1_555 1_555
H24 C32 1_555 1_555
C33 N5 1_555 1_555
C34 N6 1_555 1_555
C35 C34 1_555 1_555
H25 C35 1_555 1_555
C36 C35 1_555 1_555
H26 C36 1_555 1_555
C37 C36 1_555 1_555
H27 C37 1_555 1_555
C38 N6 1_555 1_555
C39 C38 1_555 1_555
C40 C39 1_555 1_555
H28 C40 1_555 1_555
C41 C40 1_555 1_555
H29 C41 1_555 1_555
C42 S3 1_555 1_555
H30 C42 1_555 1_555
N7 Ag3 1_555 1_555
N8 Ag3 1_555 1_555
S4 Ag3 1_555 1_555
C43 N7 1_555 1_555
H31 C43 1_555 1_555
C44 C43 1_555 1_555
H32 C44 1_555 1_555
C45 C44 1_555 1_555
H33 C45 1_555 1_555
C46 C45 1_555 1_555
H34 C46 1_555 1_555
C47 N7 1_555 1_555
C48 N8 1_555 1_555
C49 C48 1_555 1_555
H35 C49 1_555 1_555
C50 C49 1_555 1_555
H36 C50 1_555 1_555
C51 C50 1_555 1_555
H37 C51 1_555 1_555
C52 N8 1_555 1_555
C53 S4 1_555 1_555
C54 C53 1_555 1_555
H38 C54 1_555 1_555
C55 C54 1_555 1_555
H39 C55 1_555 1_555
C56 S4 1_555 1_555
H40 C56 1_555 1_555
P1 F1 1_555 1_555
F2 P1 1_555 1_555
F3 P1 1_555 1_555
F4 P1 1_555 1_555
F5 P1 1_555 1_555
F6 P1 1_555 1_555
P2 F7 1_555 1_555
F8 P2 1_555 1_555
F9 P2 1_555 1_555
F10 P2 1_555 1_555
F11 P2 1_555 1_555
F12 P2 1_555 1_555
P3 F13 1_555 1_555
F14 P3 1_555 1_555
F15 P3 1_555 1_555
F16 P3 1_555 1_555
F17 P3 1_555 1_555
F18 P3 1_555 1_555
P4 F19 1_555 1_555
F20 P4 1_555 1_555
F21 P4 1_555 1_555
F22 P4 1_555 1_555
Ag3E S1 1_555 1_555
S1E Ag3 1_555 1_555
F20A P4 1_555 1_555
F22A P4 1_555 1_555
C4 C5 1_555 1_555
C5 C6 1_555 1_555
C9 C10 1_555 1_555
C13 C14 1_555 1_555
C18 C19 1_555 1_555
C19 C20 1_555 1_555
C23 C24 1_555 1_555
C24 C25 1_555 1_555
C27 C28 1_555 1_555
C32 C33 1_555 1_555
C33 C34 1_555 1_555
C37 C38 1_555 1_555
C41 C42 1_555 1_555
C46 C47 1_555 1_555
C47 C48 1_555 1_555
C51 C52 1_555 1_555
C52 C53 1_555 1_555
C55 C56 1_555 1_555

#END
