
#######################################################################
#
#                 Cambridge Crystallographic Data Centre
#                                CCDC 
#
#######################################################################
#
# If this CIF has been generated from an entry in the Cambridge 
# Structural Database, then it will include bibliographic, chemical, 
# crystal, experimental, refinement or atomic coordinate data resulting 
# from the CCDC's data processing and validation procedures.
#
#######################################################################

data_ZEZFUH
_symmetry_cell_setting           tetragonal
_symmetry_space_group_name_H-M   'P 42/n m c'
_symmetry_Int_Tables_number      137
_space_group_name_Hall           '-P 4ac 2a'
loop_
_symmetry_equiv_pos_site_id
_symmetry_equiv_pos_as_xyz
1 x,y,z
2 1/2-x,1/2-y,z
3 1/2-y,x,1/2+z
4 y,1/2-x,1/2+z
5 -x,1/2+y,-z
6 1/2+x,-y,-z
7 1/2+y,1/2+x,1/2-z
8 -y,-x,1/2-z
9 -x,-y,-z
10 1/2+x,1/2+y,-z
11 1/2+y,-x,1/2-z
12 -y,1/2+x,1/2-z
13 x,1/2-y,z
14 1/2-x,y,z
15 1/2-y,1/2-x,1/2+z
16 y,x,1/2+z
_cell_length_a                   9.6822(3)
_cell_length_b                   9.6822(3)
_cell_length_c                   7.4882(6)
_cell_angle_alpha                90
_cell_angle_beta                 90
_cell_angle_gamma                90
_cell_volume                     701.981
loop_
_atom_site_label
_atom_site_type_symbol
_atom_site_fract_x
_atom_site_fract_y
_atom_site_fract_z
Co1 Co 0.43223(5) 0.56777(5) 0.2500
O1 O 0.2500 0.5760(3) 0.1298(4)
N1 N 0.4859(3) 0.3178(3) -0.0228(4)
N2 N 0.4617(3) 0.3631(3) 0.1432(4)
C1 C 0.4484(6) 0.2500 0.2416(7)
H1 H 0.4318 0.2500 0.3640
N1L N 0.4859(3) 0.1822(3) -0.0228(4)
N2L N 0.4617(3) 0.1369(3) 0.1432(4)
Co1C Co 0.56777(5) 0.06777(5) -0.2500
Co1H Co 0.56777(5) 0.43223(5) -0.2500
Co1J Co 0.06777(5) 0.56777(5) 0.2500
Co1K Co 0.43223(5) -0.06777(5) 0.2500
O1G O 0.4240(3) 0.7500 0.3702(4)
N1H N 0.5141(3) 0.6822(3) 0.0228(4)
N1O N 0.3178(3) 0.4859(3) 0.4772(4)
N2G N 0.6369(3) 0.5383(3) 0.3568(4)
loop_
_geom_bond_atom_site_label_1
_geom_bond_atom_site_label_2
_geom_bond_site_symmetry_1
_geom_bond_site_symmetry_2
Co1 O1 1_555 1_555
O1 Co1J 1_555 1_555
N1 N2 1_555 1_555
N2 Co1 1_555 1_555
C1 N2 1_555 1_555
H1 C1 1_555 1_555
N1L N1 1_555 1_555
N2L C1 1_555 1_555
Co1C N1L 1_555 1_555
Co1H N1 1_555 1_555
Co1K N2L 1_555 1_555
O1G Co1 1_555 1_555
N1H Co1 1_555 1_555
N1O Co1 1_555 1_555
N2G Co1 1_555 1_555
N1L N2L 1_555 1_555

#END
