
#######################################################################
#
#                 Cambridge Crystallographic Data Centre
#                                CCDC 
#
#######################################################################
#
# If this CIF has been generated from an entry in the Cambridge 
# Structural Database, then it will include bibliographic, chemical, 
# crystal, experimental, refinement or atomic coordinate data resulting 
# from the CCDC's data processing and validation procedures.
#
#######################################################################

data_ZEZPAX01
_symmetry_cell_setting           triclinic
_symmetry_space_group_name_H-M   'P -1'
_symmetry_Int_Tables_number      2
_space_group_name_Hall           '-P 1'
loop_
_symmetry_equiv_pos_site_id
_symmetry_equiv_pos_as_xyz
1 x,y,z
2 -x,-y,-z
_cell_length_a                   9.2414(5)
_cell_length_b                   10.3040(5)
_cell_length_c                   12.8291(6)
_cell_angle_alpha                76.388(4)
_cell_angle_beta                 69.431(4)
_cell_angle_gamma                86.377(4)
_cell_volume                     1111.37
loop_
_atom_site_label
_atom_site_type_symbol
_atom_site_fract_x
_atom_site_fract_y
_atom_site_fract_z
Dy1 Dy 0.45968(3) 0.25111(3) -0.00233(2)
O1 O 0.4603(5) -0.1356(5) 0.1454(4)
O2 O 0.5885(5) 0.5512(4) 0.1141(3)
O3 O 0.3371(6) 0.0580(5) 0.1244(4)
O4 O 0.6988(5) 0.3511(5) -0.1257(5)
N1 N 0.1003(8) -0.1460(7) 0.5426(5)
N2 N 0.3732(7) 0.3570(6) 0.5355(4)
C1 C 0.5075(7) 0.4476(6) 0.1684(5)
C2 C 0.0667(7) -0.0410(7) 0.4730(5)
C3 C 0.1509(7) -0.0047(6) 0.3559(5)
H1 H 0.1263 0.0731 0.3091
N3 N 0.9398(7) 0.4394(7) -0.2075(6)
C4 C 0.4707(6) 0.4606(6) 0.4696(5)
C5 C 0.2198(11) -0.2196(10) 0.4971(7)
H2 H 0.2459 -0.2939 0.5465
O5 O 0.6376(7) 0.1435(6) 0.0759(6)
C6 C 0.5145(6) 0.4933(6) 0.3511(5)
H3 H 0.5803 0.5686 0.3072
C7 C 0.8162(8) 0.3948(7) -0.1191(7)
H4 H 0.8166 0.3960 -0.0454
N4 N 0.7640(8) 0.0203(6) 0.1847(6)
C8 C 0.4607(7) 0.4145(6) 0.2979(5)
C9 C 0.3632(7) -0.0519(6) 0.1836(5)
C10 C 0.2716(7) -0.0853(6) 0.3096(5)
C11 C 0.3594(9) 0.3086(7) 0.3648(6)
H5 H 0.3188 0.2535 0.3313
C12 C 0.3198(9) 0.2863(7) 0.4830(6)
H6 H 0.2491 0.2150 0.5292
C13 C 0.7340(8) 0.0608(7) 0.0905(7)
H7 H 0.7917 0.0230 0.0279
C14 C 0.3090(10) -0.1930(8) 0.3801(6)
H8 H 0.3927 -0.2481 0.3509
C15 C 0.8855(12) -0.0742(10) 0.1951(9)
H9 H 0.8410 -0.1510 0.2585
H10 H 0.9650 -0.0304 0.2098
H11 H 0.9320 -0.1047 0.1239
C16 C 1.0730(10) 0.4897(10) -0.1924(11)
H12 H 1.0850 0.5862 -0.2245
H13 H 1.1662 0.4452 -0.2317
H14 H 1.0576 0.4715 -0.1106
C17 C 0.6852(17) 0.0750(16) 0.2814(10)
H15 H 0.6405 0.0024 0.3487
H16 H 0.6025 0.1325 0.2668
H17 H 0.7583 0.1278 0.2953
C18 C 0.9452(13) 0.4434(15) -0.3199(9)
H18 H 0.8594 0.3894 -0.3165
H19 H 1.0435 0.4075 -0.3620
H20 H 0.9365 0.5359 -0.3589
O6 O 0.2255(6) 0.2180(5) -0.0413(5)
O7 O 0.1872(6) 0.3025(5) 0.1027(5)
N5 N 0.1313(7) 0.2581(7) 0.0429(7)
O8 O -0.0105(7) 0.2533(8) 0.0625(9)
O9 O 0.4620(6) 0.3668(5) 0.1274(4)
O2A O 0.4115(5) 0.4488(4) 0.8859(3)
N2A N 0.6268(7) 0.6430(6) 0.4645(4)
C1A C 0.4925(7) 0.5524(6) 0.8316(5)
C4A C 0.5293(6) 0.5394(6) 0.5304(5)
C6A C 0.4855(6) 0.5067(6) 0.6489(5)
H3A H 0.4197 0.4314 0.6928
C8A C 0.5393(7) 0.5855(6) 0.7021(5)
C11A C 0.6406(9) 0.6914(7) 0.6352(6)
H5A H 0.6812 0.7465 0.6687
C12A C 0.6802(9) 0.7137(7) 0.5170(6)
H6A H 0.7509 0.7850 0.4708
O9A O 0.5380(6) 0.6332(5) 0.8726(4)
O3A O -0.3371(6) -0.0580(5) 0.8756(4)
N1A N -0.1003(8) 0.1460(7) 0.4574(5)
C2A C -0.0667(7) 0.0410(7) 0.5270(5)
C3A C -0.1509(7) 0.0047(6) 0.6441(5)
H1A H -0.1263 -0.0731 0.6909
C5A C -0.2198(11) 0.2196(10) 0.5029(7)
H2A H -0.2459 0.2939 0.4535
C9A C -0.3632(7) 0.0519(6) 0.8164(5)
C10A C -0.2716(7) 0.0853(6) 0.6904(5)
C14A C -0.3090(10) 0.1930(8) 0.6199(6)
H8A H -0.3927 0.2481 0.6491
O1A O -0.4603(5) 0.1356(5) 0.8546(4)
Dy1A Dy -0.45968(3) -0.25111(3) 1.00233(2)
O4A O -0.6988(5) -0.3511(5) 1.1257(5)
N3A N -0.9398(7) -0.4394(7) 1.2075(6)
O5A O -0.6376(7) -0.1435(6) 0.9241(6)
C7A C -0.8162(8) -0.3948(7) 1.1191(7)
H4A H -0.8166 -0.3960 1.0454
N4A N -0.7640(8) -0.0203(6) 0.8153(6)
C13A C -0.7340(8) -0.0608(7) 0.9095(7)
H7A H -0.7917 -0.0230 0.9721
C15A C -0.8855(12) 0.0742(10) 0.8049(9)
H9A H -0.8410 0.1510 0.7415
H10A H -0.9650 0.0304 0.7902
H11A H -0.9320 0.1047 0.8761
C16A C -1.0730(10) -0.4897(10) 1.1924(11)
H12A H -1.0850 -0.5862 1.2245
H13A H -1.1662 -0.4452 1.2317
H14A H -1.0576 -0.4715 1.1106
C17A C -0.6852(17) -0.0750(16) 0.7186(10)
H15A H -0.6405 -0.0024 0.6513
H16A H -0.6025 -0.1325 0.7332
H17A H -0.7583 -0.1278 0.7047
C18A C -0.9452(13) -0.4434(15) 1.3199(9)
H18A H -0.8594 -0.3894 1.3165
H19A H -1.0435 -0.4075 1.3620
H20A H -0.9365 -0.5359 1.3589
O6A O -0.2255(6) -0.2180(5) 1.0413(5)
O7A O -0.1872(6) -0.3025(5) 0.8973(5)
N5A N -0.1313(7) -0.2581(7) 0.9571(7)
O8A O 0.0105(7) -0.2533(8) 0.9375(9)
Dy1_2 Dy -0.54032(3) 0.25111(3) 0.99767(2)
Dy1_3 Dy 0.45968(3) 0.25111(3) 0.99767(2)
Dy1A_2 Dy 0.54032(3) -0.25111(3) 0.00233(2)
Dy1A_3 Dy 0.54032(3) 0.74889(3) 0.00233(2)
Dy1A_4 Dy 0.54032(3) 0.74889(3) 1.00233(2)
O1_2 O -0.5397(5) -0.1356(5) 1.1454(4)
O1A_2 O 0.5397(5) 0.1356(5) -0.1454(4)
O2_2 O -0.4115(5) -0.4488(4) 1.1141(3)
O2A_2 O 0.4115(5) 0.4488(4) -0.1141(3)
O9A_2 O -0.4620(6) -0.3668(5) 0.8726(4)
loop_
_geom_bond_atom_site_label_1
_geom_bond_atom_site_label_2
_geom_bond_site_symmetry_1
_geom_bond_site_symmetry_2
Dy1 O3 1_555 1_555
O1 C9 1_555 1_555
O2 C1 1_555 1_555
O3 C9 1_555 1_555
O4 Dy1 1_555 1_555
N1 C2 1_555 1_555
N2 C4 1_555 1_555
C1 C8 1_555 1_555
C2 C3 1_555 1_555
C3 H1 1_555 1_555
N3 C7 1_555 1_555
C4 C6 1_555 1_555
C5 N1 1_555 1_555
H2 C5 1_555 1_555
O5 Dy1 1_555 1_555
C6 H3 1_555 1_555
C7 O4 1_555 1_555
H4 C7 1_555 1_555
N4 C13 1_555 1_555
C8 C6 1_555 1_555
C9 C10 1_555 1_555
C10 C3 1_555 1_555
C11 C8 1_555 1_555
H5 C11 1_555 1_555
C12 N2 1_555 1_555
H6 C12 1_555 1_555
C13 O5 1_555 1_555
H7 C13 1_555 1_555
C14 C5 1_555 1_555
H8 C14 1_555 1_555
C15 N4 1_555 1_555
H9 C15 1_555 1_555
H10 C15 1_555 1_555
H11 C15 1_555 1_555
C16 N3 1_555 1_555
H12 C16 1_555 1_555
H13 C16 1_555 1_555
H14 C16 1_555 1_555
C17 N4 1_555 1_555
H15 C17 1_555 1_555
H16 C17 1_555 1_555
H17 C17 1_555 1_555
C18 N3 1_555 1_555
H18 C18 1_555 1_555
H19 C18 1_555 1_555
H20 C18 1_555 1_555
O6 Dy1 1_555 1_555
O7 Dy1 1_555 1_555
N5 O6 1_555 1_555
O8 N5 1_555 1_555
O9 Dy1 1_555 1_555
O2A C1A 1_555 1_555
N2A C4A 1_555 1_555
C1A C8A 1_555 1_555
C4A C4 1_555 1_555
C6A C4A 1_555 1_555
H3A C6A 1_555 1_555
C8A C6A 1_555 1_555
C11A C8A 1_555 1_555
H5A C11A 1_555 1_555
C12A N2A 1_555 1_555
H6A C12A 1_555 1_555
O9A C1A 1_555 1_555
O3A C9A 1_555 1_555
N1A C2A 1_555 1_555
C2A C2 1_555 1_555
C3A C2A 1_555 1_555
H1A C3A 1_555 1_555
C5A N1A 1_555 1_555
H2A C5A 1_555 1_555
C9A C10A 1_555 1_555
C10A C3A 1_555 1_555
C14A C5A 1_555 1_555
H8A C14A 1_555 1_555
O1A C9A 1_555 1_555
Dy1A O3A 1_555 1_555
O4A Dy1A 1_555 1_555
N3A C7A 1_555 1_555
O5A Dy1A 1_555 1_555
C7A O4A 1_555 1_555
H4A C7A 1_555 1_555
N4A C13A 1_555 1_555
C13A O5A 1_555 1_555
H7A C13A 1_555 1_555
C15A N4A 1_555 1_555
H9A C15A 1_555 1_555
H10A C15A 1_555 1_555
H11A C15A 1_555 1_555
C16A N3A 1_555 1_555
H12A C16A 1_555 1_555
H13A C16A 1_555 1_555
H14A C16A 1_555 1_555
C17A N4A 1_555 1_555
H15A C17A 1_555 1_555
H16A C17A 1_555 1_555
H17A C17A 1_555 1_555
C18A N3A 1_555 1_555
H18A C18A 1_555 1_555
H19A C18A 1_555 1_555
H20A C18A 1_555 1_555
O6A Dy1A 1_555 1_555
O7A Dy1A 1_555 1_555
N5A O6A 1_555 1_555
O8A N5A 1_555 1_555
Dy1_2 O1A 1_555 1_555
Dy1_3 O2A 1_555 1_555
Dy1A_2 O1 1_555 1_555
Dy1A_3 O2 1_555 1_555
Dy1A_4 O9A 1_555 1_555
O1_2 Dy1A 1_555 1_555
O1A_2 Dy1 1_555 1_555
O2_2 Dy1A 1_555 1_555
O2A_2 Dy1 1_555 1_555
O9A_2 Dy1A 1_555 1_555
C1 O9 1_555 1_555
C10 C14 1_555 1_555
C11 C12 1_555 1_555
O7 N5 1_555 1_555
C11A C12A 1_555 1_555
C10A C14A 1_555 1_555
O7A N5A 1_555 1_555

#END
