
#######################################################################
#
#                 Cambridge Crystallographic Data Centre
#                                CCDC 
#
#######################################################################
#
# If this CIF has been generated from an entry in the Cambridge 
# Structural Database, then it will include bibliographic, chemical, 
# crystal, experimental, refinement or atomic coordinate data resulting 
# from the CCDC's data processing and validation procedures.
#
#######################################################################

data_ZEZQEC
_symmetry_cell_setting           triclinic
_symmetry_space_group_name_H-M   'P -1'
_symmetry_Int_Tables_number      2
_space_group_name_Hall           '-P 1'
loop_
_symmetry_equiv_pos_site_id
_symmetry_equiv_pos_as_xyz
1 x,y,z
2 -x,-y,-z
_cell_length_a                   9.9008(13)
_cell_length_b                   11.6556(16)
_cell_length_c                   13.4354(18)
_cell_angle_alpha                66.832(3)
_cell_angle_beta                 87.019(3)
_cell_angle_gamma                76.377(3)
_cell_volume                     1383.87
loop_
_atom_site_label
_atom_site_type_symbol
_atom_site_fract_x
_atom_site_fract_y
_atom_site_fract_z
Gd1 Gd 0.23628(5) 0.02631(5) 1.00484(4)
C1 C 0.2899(12) 0.7104(11) 0.1585(9)
C2 C 0.0998(15) 0.6011(14) 0.4171(11)
H1 H 0.0145 0.6274 0.4434
C3 C 0.1244(13) 0.6673(13) 0.3115(9)
H2 H 0.0548 0.7334 0.2660
C4 C 0.2507(12) 0.6357(11) 0.2737(8)
C5 C 0.3503(11) 0.5325(10) 0.3437(8)
H3 H 0.4376 0.5066 0.3198
C6 C 0.3174(12) 0.4713(11) 0.4464(9)
C7 C 0.4198(12) 0.3593(11) 0.5248(8)
C8 C 0.3908(12) 0.2994(11) 0.6322(8)
H4 H 0.3044 0.3259 0.6568
C9 C 0.4893(11) 0.2014(11) 0.7019(8)
C10 C 0.6140(13) 0.1651(12) 0.6608(9)
H5 H 0.6844 0.0995 0.7057
C11 C 0.6338(14) 0.2264(13) 0.5527(9)
H6 H 0.7187 0.1998 0.5259
C12 C 0.4649(11) 0.1327(10) 0.8208(8)
C13 C 0.2278(16) 0.0703(16) 0.5767(11)
H7 H 0.3118 0.0936 0.5563
C14 C 0.1859(14) 0.0562(14) 0.6786(10)
H8 H 0.2374 0.0745 0.7240
C15 C 0.0646(12) 0.0139(11) 0.7132(8)
C16 C -0.0094(12) -0.0053(11) 0.6416(8)
H9 H -0.0928 -0.0301 0.6611
C17 C 0.0397(13) 0.0122(13) 0.5379(9)
C18 C 0.0116(11) -0.0033(10) 0.8226(8)
C19 C 0.362(3) 0.395(2) 1.0824(18)
H10 H 0.4549 0.3888 1.1044
H11 H 0.3039 0.4766 1.0763
H12 H 0.3622 0.3883 1.0135
C20 C 0.304(3) 0.286(3) 1.274(2)
H13 H 0.2642 0.3701 1.2741
H14 H 0.3962 0.2557 1.3068
H15 H 0.2474 0.2285 1.3156
C21 C 0.2733(17) 0.2113(16) 1.1359(12)
H16 H 0.2268 0.1563 1.1880
N1 N 0.5385(11) 0.3216(10) 0.4840(7)
N2 N 0.1920(12) 0.5009(11) 0.4842(8)
N3 N 0.1566(13) 0.0530(12) 0.5049(8)
N4 N 0.3083(16) 0.2938(14) 1.1614(12)
O1 O 0.3962(10) 0.6650(8) 0.1219(6)
O2 O 0.2050(8) 0.8139(7) 0.1074(5)
O3 O 0.5672(8) 0.0590(8) 0.8787(6)
O4 O 0.3425(7) 0.1497(7) 0.8498(5)
O5 O 0.0478(8) 0.2166(8) 0.9392(6)
H17 H -0.0217 0.2509 0.9661
H18 H 0.0173 0.2044 0.8871
O6 O 0.3956(8) -0.1256(7) 0.9393(5)
H19 H 0.4622 -0.1566 0.9877
H20 H 0.3498 -0.1852 0.9560
O7 O -0.1056(8) -0.0277(8) 0.8420(5)
O8 O 0.0898(8) 0.0064(8) 0.8889(6)
O9 O 0.2920(9) 0.1946(8) 1.0541(6)
C13A C -0.2278(16) -0.0703(16) 0.4233(11)
H7A H -0.3118 -0.0936 0.4437
C14A C -0.1859(14) -0.0562(14) 0.3214(10)
H8A H -0.2374 -0.0745 0.2760
C15A C -0.0646(12) -0.0139(11) 0.2868(8)
C16A C 0.0094(12) 0.0053(11) 0.3584(8)
H9A H 0.0928 0.0301 0.3389
C17A C -0.0397(13) -0.0122(13) 0.4621(9)
C18A C -0.0116(11) 0.0033(10) 0.1774(8)
N3A N -0.1566(13) -0.0530(12) 0.4951(8)
O7A O 0.1056(8) 0.0277(8) 0.1580(5)
O8A O -0.0898(8) -0.0064(8) 0.1111(6)
Gd1A Gd -0.23628(5) -0.02631(5) -0.00484(4)
C1A C -0.2899(12) -0.7104(11) 0.8415(9)
C2A C -0.0998(15) -0.6011(14) 0.5829(11)
H1A H -0.0145 -0.6274 0.5566
C3A C -0.1244(13) -0.6673(13) 0.6885(9)
H2A H -0.0548 -0.7334 0.7340
C4A C -0.2507(12) -0.6357(11) 0.7263(8)
C5A C -0.3503(11) -0.5325(10) 0.6563(8)
H3A H -0.4376 -0.5066 0.6802
C6A C -0.3174(12) -0.4713(11) 0.5536(9)
C7A C -0.4198(12) -0.3593(11) 0.4752(8)
C8A C -0.3908(12) -0.2994(11) 0.3678(8)
H4A H -0.3044 -0.3259 0.3432
C9A C -0.4893(11) -0.2014(11) 0.2981(8)
C10A C -0.6140(13) -0.1651(12) 0.3392(9)
H5A H -0.6844 -0.0995 0.2943
C11A C -0.6338(14) -0.2264(13) 0.4473(9)
H6A H -0.7187 -0.1998 0.4741
C12A C -0.4649(11) -0.1327(10) 0.1792(8)
C19A C -0.362(3) -0.395(2) -0.0824(18)
H10A H -0.4549 -0.3888 -0.1044
H11A H -0.3039 -0.4766 -0.0763
H12A H -0.3622 -0.3883 -0.0135
C20A C -0.304(3) -0.286(3) -0.274(2)
H13A H -0.2642 -0.3701 -0.2741
H14A H -0.3962 -0.2557 -0.3068
H15A H -0.2474 -0.2285 -0.3156
C21A C -0.2733(17) -0.2113(16) -0.1359(12)
H16A H -0.2268 -0.1563 -0.1880
N1A N -0.5385(11) -0.3216(10) 0.5160(7)
N2A N -0.1920(12) -0.5009(11) 0.5158(8)
N4A N -0.3083(16) -0.2938(14) -0.1614(12)
O1A O -0.3962(10) -0.6650(8) 0.8781(6)
O2A O -0.2050(8) -0.8139(7) 0.8926(5)
O3A O -0.5672(8) -0.0590(8) 0.1213(6)
O4A O -0.3425(7) -0.1497(7) 0.1502(5)
O5A O -0.0478(8) -0.2166(8) 0.0608(6)
H17A H 0.0217 -0.2509 0.0339
H18A H -0.0173 -0.2044 0.1129
O6A O -0.3956(8) 0.1256(7) 0.0607(5)
H19A H -0.4622 0.1566 0.0123
H20A H -0.3498 0.1852 0.0440
O9A O -0.2920(9) -0.1946(8) -0.0541(6)
Gd1_2 Gd -0.76372(5) 0.02631(5) 0.00484(4)
Gd1_3 Gd 0.23628(5) 0.02631(5) 0.00484(4)
Gd1_4 Gd 0.23628(5) 1.02631(5) 0.00484(4)
Gd1A_2 Gd -0.23628(5) -1.02631(5) 0.99516(4)
Gd1A_3 Gd -0.23628(5) -0.02631(5) 0.99516(4)
Gd1A_4 Gd 0.76372(5) -0.02631(5) 0.99516(4)
O2_2 O 0.2050(8) -0.1861(7) 1.1074(5)
O2A_2 O -0.2050(8) 0.1861(7) -0.1074(5)
O3_2 O -0.4328(8) 0.0590(8) -0.1213(6)
O3A_2 O 0.4328(8) -0.0590(8) 1.1213(6)
O7_2 O -0.1056(8) -0.0277(8) -0.1580(5)
O7A_2 O 0.1056(8) 0.0277(8) 1.1580(5)
O10 O 0.172(2) 0.5919(19) 0.8064(14)
O11 O 0.936(2) 0.3394(16) 0.0850(15)
H21 H 0.9883 0.3893 0.0796
H22 H 0.9351 0.2910 0.1516
loop_
_geom_bond_atom_site_label_1
_geom_bond_atom_site_label_2
_geom_bond_site_symmetry_1
_geom_bond_site_symmetry_2
Gd1 O4 1_555 1_555
C1 C4 1_555 1_555
C2 H1 1_555 1_555
C3 C2 1_555 1_555
H2 C3 1_555 1_555
C4 C3 1_555 1_555
C5 C4 1_555 1_555
H3 C5 1_555 1_555
C6 C5 1_555 1_555
C7 C6 1_555 1_555
C8 C7 1_555 1_555
H4 C8 1_555 1_555
C9 C8 1_555 1_555
C10 C9 1_555 1_555
H5 C10 1_555 1_555
C11 C10 1_555 1_555
H6 C11 1_555 1_555
C12 C9 1_555 1_555
C13 H7 1_555 1_555
C14 C13 1_555 1_555
H8 C14 1_555 1_555
C15 C14 1_555 1_555
C16 C15 1_555 1_555
H9 C16 1_555 1_555
C17 C16 1_555 1_555
C18 C15 1_555 1_555
C19 H10 1_555 1_555
H11 C19 1_555 1_555
H12 C19 1_555 1_555
C20 H13 1_555 1_555
H14 C20 1_555 1_555
H15 C20 1_555 1_555
C21 H16 1_555 1_555
N1 C7 1_555 1_555
N2 C2 1_555 1_555
N3 C13 1_555 1_555
N4 C19 1_555 1_555
O1 C1 1_555 1_555
O2 C1 1_555 1_555
O3 C12 1_555 1_555
O4 C12 1_555 1_555
O5 Gd1 1_555 1_555
H17 O5 1_555 1_555
H18 O5 1_555 1_555
O6 Gd1 1_555 1_555
H19 O6 1_555 1_555
H20 O6 1_555 1_555
O7 C18 1_555 1_555
O8 Gd1 1_555 1_555
O9 Gd1 1_555 1_555
O11 H21 1_555 1_555
H22 O11 1_555 1_555
C13A H7A 1_555 1_555
C14A C13A 1_555 1_555
H8A C14A 1_555 1_555
C15A C14A 1_555 1_555
C16A C15A 1_555 1_555
H9A C16A 1_555 1_555
C17A C17 1_555 1_555
C18A C15A 1_555 1_555
N3A C13A 1_555 1_555
O7A C18A 1_555 1_555
O8A C18A 1_555 1_555
Gd1A O8A 1_555 1_555
C1A C4A 1_555 1_555
C2A H1A 1_555 1_555
C3A C2A 1_555 1_555
H2A C3A 1_555 1_555
C4A C3A 1_555 1_555
C5A C4A 1_555 1_555
H3A C5A 1_555 1_555
C6A C5A 1_555 1_555
C7A C6A 1_555 1_555
C8A C7A 1_555 1_555
H4A C8A 1_555 1_555
C9A C8A 1_555 1_555
C10A C9A 1_555 1_555
H5A C10A 1_555 1_555
C11A C10A 1_555 1_555
H6A C11A 1_555 1_555
C12A C9A 1_555 1_555
C19A H10A 1_555 1_555
H11A C19A 1_555 1_555
H12A C19A 1_555 1_555
C20A H13A 1_555 1_555
H14A C20A 1_555 1_555
H15A C20A 1_555 1_555
C21A H16A 1_555 1_555
N1A C7A 1_555 1_555
N2A C2A 1_555 1_555
N4A C19A 1_555 1_555
O1A C1A 1_555 1_555
O2A C1A 1_555 1_555
O3A C12A 1_555 1_555
O4A Gd1A 1_555 1_555
O5A Gd1A 1_555 1_555
H17A O5A 1_555 1_555
H18A O5A 1_555 1_555
O6A Gd1A 1_555 1_555
H19A O6A 1_555 1_555
H20A O6A 1_555 1_555
O9A Gd1A 1_555 1_555
Gd1_2 O3A 1_555 1_555
Gd1_3 O7A 1_555 1_555
Gd1_4 O2 1_555 1_555
Gd1A_2 O2A 1_555 1_555
Gd1A_3 O7 1_555 1_555
Gd1A_4 O3 1_555 1_555
O2_2 Gd1 1_555 1_555
O2A_2 Gd1A 1_555 1_555
O3_2 Gd1A 1_555 1_555
O3A_2 Gd1 1_555 1_555
O7_2 Gd1A 1_555 1_555
O7A_2 Gd1 1_555 1_555
C6 N2 1_555 1_555
C11 N1 1_555 1_555
C17 N3 1_555 1_555
C18 O8 1_555 1_555
C20 N4 1_555 1_555
C21 N4 1_555 1_555
C21 O9 1_555 1_555
C16A C17A 1_555 1_555
C17A N3A 1_555 1_555
C6A N2A 1_555 1_555
C11A N1A 1_555 1_555
C12A O4A 1_555 1_555
C20A N4A 1_555 1_555
C21A N4A 1_555 1_555
C21A O9A 1_555 1_555

#END
