
#######################################################################
#
#                 Cambridge Crystallographic Data Centre
#                                CCDC 
#
#######################################################################
#
# If this CIF has been generated from an entry in the Cambridge 
# Structural Database, then it will include bibliographic, chemical, 
# crystal, experimental, refinement or atomic coordinate data resulting 
# from the CCDC's data processing and validation procedures.
#
#######################################################################

data_ZIBDUJ
_symmetry_cell_setting           monoclinic
_symmetry_space_group_name_H-M   'P 21/n'
_symmetry_Int_Tables_number      14
_space_group_name_Hall           '-P 2yn'
loop_
_symmetry_equiv_pos_site_id
_symmetry_equiv_pos_as_xyz
1 x,y,z
2 1/2-x,1/2+y,1/2-z
3 -x,-y,-z
4 1/2+x,1/2-y,1/2+z
_cell_length_a                   10.474(2)
_cell_length_b                   13.696(4)
_cell_length_c                   11.107(2)
_cell_angle_alpha                90
_cell_angle_beta                 92.90(2)
_cell_angle_gamma                90
_cell_volume                     1591.28
loop_
_atom_site_label
_atom_site_type_symbol
_atom_site_fract_x
_atom_site_fract_y
_atom_site_fract_z
Cd1 Cd 0.40619(4) 0.23538(3) 0.14391(3)
Ni1 Ni 0.42601(6) 0.40079(5) 0.57570(6)
N1 N 0.4183(5) 0.2924(4) 0.3401(4)
N2 N 0.6870(5) 0.3190(4) 0.6429(5)
N3 N 0.3997(7) 0.4927(4) 0.8192(5)
N4 N 0.1532(5) 0.4469(4) 0.5025(5)
N5 N 0.3396(5) 0.3971(4) 0.0923(5)
N6 N 0.0401(5) 0.5753(4) 0.2823(4)
N7 N 0.6241(4) 0.2857(3) 0.1268(4)
N8 N 0.8890(5) 0.3336(4) 0.4500(4)
C1 C 0.4257(5) 0.3351(4) 0.4298(5)
C2 C 0.5893(5) 0.3545(4) 0.6187(5)
C3 C 0.4120(5) 0.4606(4) 0.7255(5)
C4 C 0.2586(5) 0.4339(4) 0.5324(5)
C5 C 0.2139(7) 0.4250(5) 0.1420(6)
C6 C 0.1768(6) 0.5323(5) 0.1141(6)
C7 C 0.0425(6) 0.5551(5) 0.1523(5)
C8 C 0.7084(5) 0.2662(5) 0.2352(5)
C9 C 0.8414(5) 0.3090(5) 0.2281(5)
C10 C 0.9274(5) 0.2823(4) 0.3410(5)
H1 H 0.33147 0.40243 0.00240
H2 H 0.40645 0.44377 0.12444
H3 H 0.13900 0.37693 0.10223
H4 H 0.22067 0.41499 0.24044
H5 H 0.18091 0.54500 0.01652
H6 H 0.24509 0.58097 0.16289
H7 H -0.01957 0.49203 0.13066
H8 H 0.00625 0.61944 0.10223
H9 H -0.04856 0.56100 0.30665
H10 H 0.10135 0.52875 0.32385
H11 H 0.62486 0.35753 0.11073
H12 H 0.65946 0.25024 0.05715
H13 H 0.66392 0.29779 0.31395
H14 H 0.71722 0.18667 0.24677
H15 H 0.88515 0.28019 0.14740
H16 H 0.83393 0.38893 0.22144
H17 H 1.02673 0.30198 0.32431
H18 H 0.92103 0.20311 0.35641
H19 H 0.94073 0.39495 0.45470
H20 H 0.79662 0.35032 0.43497
N2C N 0.1870(5) 0.1810(4) 0.1429(5)
N6A N 0.4599(5) 0.0753(4) 0.2177(4)
N8C N 0.3890(5) 0.1664(4) -0.0500(4)
Cd1C Cd 0.90619(4) 0.26462(3) 0.64391(3)
Cd1A Cd 0.09381(4) 0.73538(3) 0.35609(3)
H9A H 0.54856 0.06100 0.19335
H10A H 0.39865 0.02875 0.17615
H19C H 0.44073 0.10505 -0.04530
H20C H 0.29662 0.14968 -0.06503
loop_
_geom_bond_atom_site_label_1
_geom_bond_atom_site_label_2
_geom_bond_site_symmetry_1
_geom_bond_site_symmetry_2
Cd1 N1 1_555 1_555
Ni1 C1 1_555 1_555
N1 C1 1_555 1_555
N2 C2 1_555 1_555
N3 C3 1_555 1_555
N4 C4 1_555 1_555
N5 Cd1 1_555 1_555
N6 C7 1_555 1_555
N7 Cd1 1_555 1_555
N8 C10 1_555 1_555
C2 Ni1 1_555 1_555
C3 Ni1 1_555 1_555
C4 Ni1 1_555 1_555
C5 N5 1_555 1_555
C6 C5 1_555 1_555
C7 C6 1_555 1_555
C8 N7 1_555 1_555
C9 C8 1_555 1_555
C10 C9 1_555 1_555
H1 N5 1_555 1_555
H2 N5 1_555 1_555
H3 C5 1_555 1_555
H4 C5 1_555 1_555
H5 C6 1_555 1_555
H6 C6 1_555 1_555
H7 C7 1_555 1_555
H8 C7 1_555 1_555
H9 N6 1_555 1_555
H10 N6 1_555 1_555
H11 N7 1_555 1_555
H12 N7 1_555 1_555
H13 C8 1_555 1_555
H14 C8 1_555 1_555
H15 C9 1_555 1_555
H16 C9 1_555 1_555
H17 C10 1_555 1_555
H18 C10 1_555 1_555
H19 N8 1_555 1_555
H20 N8 1_555 1_555
N2C Cd1 1_555 1_555
N6A Cd1 1_555 1_555
N8C Cd1 1_555 1_555
Cd1C N2 1_555 1_555
Cd1A N6 1_555 1_555
H9A N6A 1_555 1_555
H10A N6A 1_555 1_555
H19C N8C 1_555 1_555
H20C N8C 1_555 1_555
N8 Cd1C 1_555 1_555

#END
