
#######################################################################
#
#                 Cambridge Crystallographic Data Centre
#                                CCDC 
#
#######################################################################
#
# If this CIF has been generated from an entry in the Cambridge 
# Structural Database, then it will include bibliographic, chemical, 
# crystal, experimental, refinement or atomic coordinate data resulting 
# from the CCDC's data processing and validation procedures.
#
#######################################################################

data_ZIBZIV
_symmetry_cell_setting           monoclinic
_symmetry_space_group_name_H-M   'C 2/c'
_symmetry_Int_Tables_number      15
_space_group_name_Hall           '-C 2yn'
loop_
_symmetry_equiv_pos_site_id
_symmetry_equiv_pos_as_xyz
1 x,y,z
2 -x,y,1/2-z
3 1/2+x,1/2+y,z
4 1/2-x,1/2+y,1/2-z
5 -x,-y,-z
6 x,-y,1/2+z
7 1/2-x,1/2-y,-z
8 1/2+x,1/2-y,1/2+z
_cell_length_a                   11.0675(3)
_cell_length_b                   8.7878(2)
_cell_length_c                   15.2375(4)
_cell_angle_alpha                90
_cell_angle_beta                 102.850(2)
_cell_angle_gamma                90
_cell_volume                     1444.87
loop_
_atom_site_label
_atom_site_type_symbol
_atom_site_fract_x
_atom_site_fract_y
_atom_site_fract_z
N1 N 0.7394(3) 1.4209(3) 0.73872(17)
Cu1 Cu 0.78527(4) 1.09952(3) 0.68787(2)
C1 C 0.8671(2) 0.8996(3) 0.45978(18)
H1 H 0.8644 0.8906 0.3986
N2 N 0.8470(2) 0.9898(2) 0.59190(15)
N3 N 0.90951(18) 0.7922(2) 0.52503(13)
C2 C 0.8304(2) 1.0198(3) 0.50152(18)
H2 H 0.7985 1.1098 0.4735
C3 C 0.8947(3) 0.8524(3) 0.60305(18)
H3 H 0.9157 0.8028 0.6583
C4 C 0.9919(3) 0.6090(3) 0.43378(19)
H4 H 0.9864 0.6821 0.3889
C5 C 0.9568(2) 0.6444(3) 0.51300(17)
C6 C 0.9651(3) 0.5346(3) 0.57857(18)
H5 H 0.9414 0.5578 0.6319
C7 C 0.7567(3) 1.3011(3) 0.71516(19)
C1D C 1.1329(2) 0.1004(3) 0.54022(18)
H1D H 1.1356 0.1094 0.6014
N2D N 1.1530(2) 0.0102(2) 0.40810(15)
N3D N 1.09049(18) 0.2078(2) 0.47497(13)
C2D C 1.1696(2) -0.0198(3) 0.49848(18)
H2D H 1.2015 -0.1098 0.5265
C3D C 1.1053(3) 0.1476(3) 0.39695(18)
H3D H 1.0843 0.1972 0.3417
C4D C 1.0081(3) 0.3910(3) 0.56622(19)
H4D H 1.0136 0.3179 0.6111
C5D C 1.0432(2) 0.3556(3) 0.48700(17)
C6D C 1.0349(3) 0.4654(3) 0.42143(18)
H5D H 1.0586 0.4422 0.3681
N1D N 1.2606(3) -0.4209(3) 0.26128(17)
Cu1D Cu 1.21473(4) -0.09952(3) 0.31213(2)
C7D C 1.2433(3) -0.3011(3) 0.28484(19)
N1C N 0.7606(3) 0.9209(3) 0.76128(17)
N1G N 1.2394(3) 0.0791(3) 0.23872(17)
Cu1C Cu 0.71473(4) 1.59952(3) 0.81213(2)
Cu1G Cu 1.28527(4) -0.59952(3) 0.18787(2)
loop_
_geom_bond_atom_site_label_1
_geom_bond_atom_site_label_2
_geom_bond_site_symmetry_1
_geom_bond_site_symmetry_2
N1 C7 1_555 1_555
Cu1 N2 1_555 1_555
C1 H1 1_555 1_555
N2 C2 1_555 1_555
N3 C1 1_555 1_555
C2 C1 1_555 1_555
H2 C2 1_555 1_555
C3 N2 1_555 1_555
H3 C3 1_555 1_555
C4 H4 1_555 1_555
C5 N3 1_555 1_555
C6 C5 1_555 1_555
H5 C6 1_555 1_555
C7 Cu1 1_555 1_555
C1D H1D 1_555 1_555
N2D C2D 1_555 1_555
N3D C1D 1_555 1_555
C2D C1D 1_555 1_555
H2D C2D 1_555 1_555
C3D N2D 1_555 1_555
H3D C3D 1_555 1_555
C4D C6 1_555 1_555
H4D C4D 1_555 1_555
C5D N3D 1_555 1_555
C6D C4 1_555 1_555
H5D C6D 1_555 1_555
N1D C7D 1_555 1_555
Cu1D N2D 1_555 1_555
C7D Cu1D 1_555 1_555
N1C Cu1 1_555 1_555
N1G Cu1D 1_555 1_555
Cu1C N1 1_555 1_555
Cu1G N1D 1_555 1_555
N3 C3 1_555 1_555
C4 C5 1_555 1_555
N3D C3D 1_555 1_555
C4D C5D 1_555 1_555
C5D C6D 1_555 1_555

#END
