
#######################################################################
#
#                 Cambridge Crystallographic Data Centre
#                                CCDC 
#
#######################################################################
#
# If this CIF has been generated from an entry in the Cambridge 
# Structural Database, then it will include bibliographic, chemical, 
# crystal, experimental, refinement or atomic coordinate data resulting 
# from the CCDC's data processing and validation procedures.
#
#######################################################################

data_ZIDBIZ
_symmetry_cell_setting           triclinic
_symmetry_space_group_name_H-M   'P -1'
_symmetry_Int_Tables_number      2
_space_group_name_Hall           '-P 1'
loop_
_symmetry_equiv_pos_site_id
_symmetry_equiv_pos_as_xyz
1 x,y,z
2 -x,-y,-z
_cell_length_a                   12.067(5)
_cell_length_b                   15.262(5)
_cell_length_c                   20.310(5)
_cell_angle_alpha                96.457(5)
_cell_angle_beta                 95.796(5)
_cell_angle_gamma                90.465(5)
_cell_volume                     3696.98
loop_
_atom_site_label
_atom_site_type_symbol
_atom_site_fract_x
_atom_site_fract_y
_atom_site_fract_z
O1 O 0.829(2) 0.8037(16) 0.2963(12)
O2 O 0.9717(19) 0.9002(13) 0.2777(11)
O3 O 0.823(2) 0.6995(12) 0.4197(11)
O4 O 0.752(2) 0.6443(16) 0.2691(12)
O5 O 1.0170(18) 0.6605(10) 0.2881(9)
O6 O 0.9363(19) 0.5974(12) 0.1682(10)
O7 O 0.715(2) 0.8419(17) 0.2268(16)
O8 O 0.5393(18) 0.8869(13) 0.3302(13)
O9 O 0.6921(19) 0.8306(11) 0.4185(9)
O10 O 0.6091(18) 0.6713(12) 0.3907(10)
O11 O 0.458(2) 0.7235(12) 0.3071(13)
O12 O 0.455(2) 0.8243(12) 0.2095(13)
O13 O 0.6413(14) 0.7859(12) 0.0790(10)
O14 O 0.7755(15) 0.6532(11) 0.0809(11)
O15 O 0.6306(18) 0.5598(14) 0.1244(13)
O16 O 0.5787(15) 0.4190(10) 0.1953(9)
O17 O 0.641(2) 0.6848(15) 0.2010(12)
O18 O 0.571(2) 0.6298(16) 0.0047(12)
O19 O 0.3055(14) 0.6811(14) 0.1956(12)
O20 O 0.470(3) 0.8039(14) 0.4353(16)
O21 O 0.4601(17) 1.0076(12) 0.2434(11)
O22 O 0.8567(15) 0.8133(11) 0.1069(11)
O23 O 0.741(2) 0.9467(15) 0.0599(12)
O24 O 1.013(2) 0.7630(12) 0.1910(10)
O25 O 0.9965(18) 0.6840(13) 0.0617(11)
O26 O 1.0080(18) 0.4794(12) 0.2534(10)
O27 O 0.732(2) 0.5370(14) 0.4379(13)
O28 O 0.9040(18) 0.8597(14) 0.4903(10)
O29 O 1.1616(17) 0.8056(15) 0.3025(11)
O30 O 0.8884(14) 1.0673(10) 0.3042(9)
P1 P 0.7325(5) 0.7432(3) 0.2489(3)
W1 W 0.83737(9) 0.96245(6) 0.28714(6)
W2 W 1.02706(8) 0.78522(7) 0.28437(6)
W3 W 0.84831(11) 0.82072(7) 0.41398(5)
W4 W 0.73475(12) 0.60303(8) 0.37743(5)
W5 W 0.92200(9) 0.56435(7) 0.25298(6)
W6 W 0.91493(9) 0.69957(7) 0.12245(5)
W7 W 0.73412(10) 0.88386(7) 0.12088(5)
W8 W 0.54671(9) 0.92246(7) 0.24404(7)
W9 W 0.55429(10) 0.78633(7) 0.37618(5)
W10 W 0.44238(9) 0.70157(7) 0.21324(8)
W11 W 0.62078(9) 0.66579(7) 0.08368(5)
W12 W 0.63132(9) 0.52391(6) 0.21051(6)
O31 O 0.952(3) 0.788(2) 0.3617(16)
O32 O 0.818(3) 0.920(2) 0.3624(16)
O33 O 0.823(2) 0.932(2) 0.1972(16)
O34 O 0.608(2) 0.902(2) 0.1754(16)
O35 O 0.687(2) 0.961(2) 0.2913(16)
O36 O 0.476(3) 0.684(2) 0.1088(17)
O37 O 0.791(2) 0.487(2) 0.2178(16)
O38 O 0.659(2) 0.515(2) 0.3129(16)
O39 O 0.480(3) 0.580(2) 0.2077(17)
O40 O 0.876(2) 0.549(2) 0.3421(15)
O41 O 0.618(2) 0.7693(16) 0.2694(12)
O42 O 0.849(2) 0.7126(16) 0.2314(12)
O43 O 0.362(4) 0.286(5) 0.4469(17)
O44 O 0.531(4) 0.392(3) 0.4857(15)
O45 O 0.046(4) 0.168(2) 0.0327(14)
C1 C -0.0624(19) 0.2551(15) 0.3708(11)
H1 H -0.1307 0.2277 0.3555
C2 C 0.107(2) 0.2905(19) 0.3853(12)
H2 H 0.1827 0.2913 0.3800
C3 C -0.125(3) 0.367(2) 0.4606(16)
H3 H -0.1991 0.3518 0.4391
H4 H -0.1144 0.4302 0.4614
C4 C -0.119(2) 0.346(2) 0.5297(11)
H5 H -0.1092 0.2823 0.5273
H6 H -0.0500 0.3724 0.5519
C5 C -0.203(4) 0.366(3) 0.575(3)
H7 H -0.1932 0.3319 0.6131
H8 H -0.2778 0.3557 0.5532
C6 C -0.179(4) 0.464(3) 0.597(2)
H9 H -0.1818 0.4980 0.5591
H10 H -0.1080 0.4746 0.6236
C7 C 0.486(2) 0.2280(17) 0.3279(11)
H11 H 0.4160 0.2233 0.3422
C8 C 0.622(2) 0.265(2) 0.2806(15)
H12 H 0.6656 0.2915 0.2527
C9 C 0.580(2) 0.1209(17) 0.3982(13)
H13 H 0.5807 0.0634 0.3724
H14 H 0.5148 0.1233 0.4225
C10 C 0.685(2) 0.1340(18) 0.4467(16)
H15 H 0.6836 0.1906 0.4738
H16 H 0.7503 0.1322 0.4229
C11 C 0.685(2) 0.0570(17) 0.4915(12)
H17 H 0.6166 0.0561 0.5129
H18 H 0.6917 0.0006 0.4650
C12 C 0.784(2) 0.0744(18) 0.5428(11)
H19 H 0.8518 0.0726 0.5211
H20 H 0.7787 0.1326 0.5670
C13 C 0.733(2) -0.062(2) 0.6641(15)
H21 H 0.6870 -0.0869 0.6917
C14 C 0.874(2) -0.0306(16) 0.6175(12)
H22 H 0.9460 -0.0248 0.6058
C15 C 0.621(5) 0.119(4) 0.039(3)
H23 H 0.6147 0.0551 0.0343
H24 H 0.6859 0.1364 0.0702
C16 C 0.636(2) 0.1479(17) -0.0243(14)
H25 H 0.6627 0.2086 -0.0172
H26 H 0.5642 0.1463 -0.0507
C17 C 0.714(3) 0.095(2) -0.0618(16)
H27 H 0.7607 0.0659 -0.0296
H28 H 0.6695 0.0489 -0.0896
C18 C 0.785(3) 0.131(2) -0.1029(18)
H29 H 0.8290 0.1786 -0.0774
H30 H 0.7409 0.1543 -0.1392
C19 C 0.979(2) -0.0321(17) -0.1375(13)
H31 H 1.0413 -0.0652 -0.1263
C20 C 0.847(3) 0.018(2) -0.1920(14)
H32 H 0.7932 0.0287 -0.2261
C21 C 0.268(8) 0.572(5) 0.043(4)
H33 H 0.2599 0.6292 0.0675
H34 H 0.3450 0.5652 0.0330
C22 C 0.205(4) 0.5611(18) -0.0068(16)
H35 H 0.1314 0.5457 0.0048
H36 H 0.2291 0.5122 -0.0363
C23 C 0.196(3) 0.643(2) -0.0431(16)
H37 H 0.1745 0.6924 -0.0133
H38 H 0.2684 0.6567 -0.0567
C24 C 0.120(4) 0.630(2) -0.0979(19)
H39 H 0.0474 0.6203 -0.0829
H40 H 0.1384 0.5765 -0.1246
C25 C 0.156(2) 0.801(2) -0.1990(15)
H41 H 0.2008 0.8384 -0.2187
C26 C 0.018(2) 0.7307(18) -0.1745(17)
H42 H -0.0536 0.7098 -0.1723
N1 N 0.0361(15) 0.2355(12) 0.3488(9)
N2 N -0.0431(16) 0.3224(12) 0.4195(8)
N3 N 0.063(2) 0.3452(16) 0.4304(9)
N4 N 0.5102(13) 0.2745(12) 0.2783(9)
N5 N 0.5746(15) 0.1908(12) 0.3528(9)
N6 N 0.6655(18) 0.2151(17) 0.3259(13)
N7 N 0.7859(16) 0.0060(14) 0.5899(10)
N8 N 0.6956(18) -0.0091(16) 0.6205(12)
N9 N 0.8446(14) -0.0780(13) 0.6653(9)
N10 N 0.4368(18) 0.2393(11) 0.1447(10)
C27 C 0.5259(17) 0.2385(11) 0.1041(12)
H43 H 0.5763 0.2846 0.1031
N11 N 0.5245(17) 0.1550(13) 0.0653(10)
N12 N 0.4346(18) 0.1042(10) 0.0820(11)
C28 C 0.3803(16) 0.1562(13) 0.1311(11)
H44 H 0.3186 0.1390 0.1508
N13 N 0.862(2) 0.0619(14) -0.1310(12)
N14 N 0.944(3) 0.0309(18) -0.0947(12)
N15 N 0.9232(16) -0.0453(13) -0.1955(10)
N16 N 0.310(2) 0.3851(16) 0.1484(11)
C29 C 0.315(2) 0.4743(15) 0.1351(12)
H45 H 0.3675 0.5166 0.1551
N17 N 0.226(2) 0.4875(13) 0.0859(11)
N18 N 0.1662(18) 0.4065(17) 0.0688(10)
C30 C 0.218(2) 0.3432(13) 0.1075(12)
H46 H 0.1950 0.2845 0.1062
N19 N 0.110(2) 0.7024(14) -0.1417(11)
N20 N 0.1956(19) 0.7455(19) -0.1534(13)
N21 N 0.0458(16) 0.7938(14) -0.2110(10)
Cl1 Cl 0.2329(5) 0.2338(5) 0.2424(3)
Cu1 Cu 0.3991(2) 0.32885(17) 0.21520(12)
Cu2 Cu 0.0633(2) 0.14445(18) 0.27147(13)
N22 N -0.394(2) 0.4875(16) 0.6161(10)
C31 C -0.442(2) 0.5410(17) 0.6610(14)
H47 H -0.5174 0.5524 0.6569
N23 N -0.289(3) 0.487(2) 0.6436(14)
C32 C -0.271(3) 0.540(3) 0.7003(16)
H48 H -0.2038 0.5499 0.7268
N24 N -0.3719(15) 0.5769(12) 0.7119(9)
N9A N 0.1554(14) 0.0780(13) 0.3347(9)
N15A N 0.0768(16) 0.0453(13) 0.1955(10)
N21A N -0.0458(16) 0.2062(14) 0.2110(10)
Cu1A Cu -0.3991(2) 0.67115(17) 0.78480(12)
Cu2A Cu -0.0633(2) 0.85555(18) -0.27147(13)
Cu2A_2 Cu 0.9367(2) -0.14445(18) -0.27147(13)
Cu2A_3 Cu 0.9367(2) -0.14445(18) 0.72853(13)
N24A N 0.3719(15) 0.4231(12) 0.2881(9)
H49? H -0.0440 0.3527 0.5521
H50? H -0.1474 0.2866 0.5324
C33? C -0.201(4) 0.421(4) 0.558(3)
H51? H -0.1620 0.4778 0.5657
H52? H -0.2648 0.4259 0.5255
C34? C -0.240(4) 0.399(3) 0.621(2)
H53? H -0.1790 0.3837 0.6524
H54? H -0.2958 0.3518 0.6138
C35? C 0.547(8) 0.104(5) 0.001(4)
H55? H 0.5674 0.0441 0.0089
H56? H 0.4802 0.1007 -0.0300
H57? H 0.6793 0.1816 0.0130
H58? H 0.6027 0.1899 -0.0525
C36? C 0.171(7) 0.550(5) 0.051(3)
H59? H 0.0924 0.5336 0.0437
H60? H 0.1775 0.6063 0.0784
H61? H 0.1680 0.5143 -0.0379
H62? H 0.2831 0.5471 -0.0025
O46? O 1.004(3) 0.803(2) 0.3810(17)
O47? O 0.869(3) 0.938(2) 0.3842(17)
O48? O 0.816(3) 0.974(2) 0.1857(17)
O49? O 0.604(3) 0.943(2) 0.1500(17)
O50? O 0.673(3) 1.004(2) 0.2758(17)
O51? O 0.511(3) 0.700(2) 0.1429(19)
O52? O 0.775(3) 0.531(2) 0.2072(17)
O53? O 0.641(3) 0.559(2) 0.2958(17)
O54? O 0.523(3) 0.594(2) 0.2391(18)
O55? O 0.840(3) 0.590(2) 0.3349(17)
O56? O 0.745(2) 0.7454(16) 0.1778(12)
O57? O 0.717(2) 0.7442(18) 0.3168(13)
loop_
_geom_bond_atom_site_label_1
_geom_bond_atom_site_label_2
_geom_bond_site_symmetry_1
_geom_bond_site_symmetry_2
C1 H1 1_555 1_555
C2 H2 1_555 1_555
C3 H3 1_555 1_555
H4 C3 1_555 1_555
C4 C3 1_555 1_555
H5 C4 1_555 1_555
H6 C4 1_555 1_555
C5 C4 1_555 1_555
H7 C5 1_555 1_555
H8 C5 1_555 1_555
C6 C5 1_555 1_555
H9 C6 1_555 1_555
H10 C6 1_555 1_555
C7 H11 1_555 1_555
C8 H12 1_555 1_555
C9 H13 1_555 1_555
H14 C9 1_555 1_555
C10 C9 1_555 1_555
H15 C10 1_555 1_555
H16 C10 1_555 1_555
C11 C10 1_555 1_555
H17 C11 1_555 1_555
H18 C11 1_555 1_555
C12 C11 1_555 1_555
H19 C12 1_555 1_555
H20 C12 1_555 1_555
C13 H21 1_555 1_555
C14 H22 1_555 1_555
C15 H23 1_555 1_555
H24 C15 1_555 1_555
C16 C15 1_555 1_555
H25 C16 1_555 1_555
H26 C16 1_555 1_555
C17 C16 1_555 1_555
H27 C17 1_555 1_555
H28 C17 1_555 1_555
C18 C17 1_555 1_555
H29 C18 1_555 1_555
H30 C18 1_555 1_555
C19 H31 1_555 1_555
C20 H32 1_555 1_555
C21 H33 1_555 1_555
H34 C21 1_555 1_555
C22 C21 1_555 1_555
H35 C22 1_555 1_555
H36 C22 1_555 1_555
C23 C22 1_555 1_555
H37 C23 1_555 1_555
H38 C23 1_555 1_555
C24 C23 1_555 1_555
H39 C24 1_555 1_555
H40 C24 1_555 1_555
C25 H41 1_555 1_555
C26 H42 1_555 1_555
N1 C1 1_555 1_555
N2 C1 1_555 1_555
N3 C2 1_555 1_555
N4 C7 1_555 1_555
N5 C7 1_555 1_555
N6 C8 1_555 1_555
N7 C12 1_555 1_555
N8 C13 1_555 1_555
N9 C13 1_555 1_555
N10 C27 1_555 1_555
C27 H43 1_555 1_555
N11 C15 1_555 1_555
N12 N11 1_555 1_555
C28 N10 1_555 1_555
H44 C28 1_555 1_555
N13 C18 1_555 1_555
N14 C19 1_555 1_555
N15 C19 1_555 1_555
N16 C29 1_555 1_555
C29 H45 1_555 1_555
N17 C21 1_555 1_555
N18 N17 1_555 1_555
C30 N16 1_555 1_555
H46 C30 1_555 1_555
N19 C24 1_555 1_555
N20 C25 1_555 1_555
N21 C25 1_555 1_555
Cl1 Cu1 1_555 1_555
Cu1 N4 1_555 1_555
Cu2 N1 1_555 1_555
N22 C31 1_555 1_555
C31 H47 1_555 1_555
N23 C6 1_555 1_555
C32 N23 1_555 1_555
H48 C32 1_555 1_555
N24 C31 1_555 1_555
O1 P1 1_555 1_555
O2 W1 1_555 1_555
O3 W3 1_555 1_555
O4 P1 1_555 1_555
O5 W2 1_555 1_555
O6 W5 1_555 1_555
O7 P1 1_555 1_555
O8 W8 1_555 1_555
O9 W3 1_555 1_555
O10 W4 1_555 1_555
O11 W9 1_555 1_555
O12 W8 1_555 1_555
O13 W7 1_555 1_555
O14 W6 1_555 1_555
O15 W11 1_555 1_555
O16 W12 1_555 1_555
O17 P1 1_555 1_555
O18 W11 1_555 1_555
O19 W10 1_555 1_555
O20 W9 1_555 1_555
O21 W8 1_555 1_555
O22 W6 1_555 1_555
O23 W7 1_555 1_555
O24 W2 1_555 1_555
O25 W6 1_555 1_555
O26 W5 1_555 1_555
O27 W4 1_555 1_555
O28 W3 1_555 1_555
O29 W2 1_555 1_555
O30 W1 1_555 1_555
P1 O41 1_555 1_555
W1 O1 1_555 1_555
W2 O1 1_555 1_555
W3 O1 1_555 1_555
W4 O3 1_555 1_555
W5 O4 1_555 1_555
W6 O6 1_555 1_555
W7 O7 1_555 1_555
W8 O7 1_555 1_555
W9 O8 1_555 1_555
W10 O11 1_555 1_555
W11 O13 1_555 1_555
W12 O4 1_555 1_555
O31 W2 1_555 1_555
O32 W1 1_555 1_555
O33 W1 1_555 1_555
O34 W7 1_555 1_555
O35 W1 1_555 1_555
O36 W10 1_555 1_555
O37 W5 1_555 1_555
O38 W4 1_555 1_555
O39 W10 1_555 1_555
O40 W4 1_555 1_555
O41 W9 1_555 1_555
O42 P1 1_555 1_555
N9A Cu2 1_555 1_555
N15A Cu2 1_555 1_555
N21A Cu2 1_555 1_555
Cu1A N24 1_555 1_555
Cu2A N21 1_555 1_555
Cu2A_2 N15 1_555 1_555
Cu2A_3 N9 1_555 1_555
N24A Cu1 1_555 1_555
C2 N1 1_555 1_555
C3 N2 1_555 1_555
C8 N4 1_555 1_555
C9 N5 1_555 1_555
C14 N7 1_555 1_555
C14 N9 1_555 1_555
C20 N13 1_555 1_555
C20 N15 1_555 1_555
C26 N19 1_555 1_555
C26 N21 1_555 1_555
N2 N3 1_555 1_555
N5 N6 1_555 1_555
N7 N8 1_555 1_555
N10 Cu1 1_555 1_555
C27 N11 1_555 1_555
N12 C28 1_555 1_555
N13 N14 1_555 1_555
N16 Cu1 1_555 1_555
C29 N17 1_555 1_555
N18 C30 1_555 1_555
N19 N20 1_555 1_555
Cl1 Cu2 1_555 1_555
N22 N23 1_555 1_555
C32 N24 1_555 1_555
O2 W2 1_555 1_555
O4 W4 1_555 1_555
O5 W5 1_555 1_555
O7 W1 1_555 1_555
O9 W9 1_555 1_555
O10 W9 1_555 1_555
O12 W10 1_555 1_555
O14 W11 1_555 1_555
O15 W12 1_555 1_555
O17 W10 1_555 1_555
O17 W11 1_555 1_555
O17 W12 1_555 1_555
O22 W7 1_555 1_555
O24 W6 1_555 1_555
W2 O42 1_555 1_555
W3 O31 1_555 1_555
W3 O32 1_555 1_555
W5 O40 1_555 1_555
W6 O42 1_555 1_555
W7 O33 1_555 1_555
W8 O34 1_555 1_555
W8 O35 1_555 1_555
W10 O41 1_555 1_555
W11 O36 1_555 1_555
W12 O37 1_555 1_555
W12 O38 1_555 1_555
W12 O39 1_555 1_555

#END
