
#######################################################################
#
#                 Cambridge Crystallographic Data Centre
#                                CCDC 
#
#######################################################################
#
# If this CIF has been generated from an entry in the Cambridge 
# Structural Database, then it will include bibliographic, chemical, 
# crystal, experimental, refinement or atomic coordinate data resulting 
# from the CCDC's data processing and validation procedures.
#
#######################################################################

data_ZIDPEH
_symmetry_cell_setting           monoclinic
_symmetry_space_group_name_H-M   'P 21/c'
_symmetry_Int_Tables_number      14
_space_group_name_Hall           '-P 2ybc'
loop_
_symmetry_equiv_pos_site_id
_symmetry_equiv_pos_as_xyz
1 x,y,z
2 -x,1/2+y,1/2-z
3 -x,-y,-z
4 x,1/2-y,1/2+z
_cell_length_a                   11.218(2)
_cell_length_b                   11.317(3)
_cell_length_c                   17.035(7)
_cell_angle_alpha                90
_cell_angle_beta                 104.17(2)
_cell_angle_gamma                90
_cell_volume                     2096.86
loop_
_atom_site_label
_atom_site_type_symbol
_atom_site_fract_x
_atom_site_fract_y
_atom_site_fract_z
Ag1 Ag 0.1017(1) 0.0135(1) 0.18348(7)
S1 S -0.1412(4) 0.1998(4) -0.1499(3)
S2 S 0.0760(4) 0.2084(4) 0.1084(3)
S3 S -0.1299(4) 0.5221(4) 0.1631(2)
C1 C -0.302(1) 0.337(1) -0.007(1)
C2 C -0.303(2) 0.445(2) 0.028(1)
C3 C -0.315(2) 0.543(2) -0.019(1)
C4 C -0.325(2) 0.533(2) -0.104(1)
C5 C -0.322(2) 0.424(2) -0.139(1)
C6 C -0.306(1) 0.323(1) -0.089(1)
C7 C -0.290(1) 0.205(1) -0.1246(9)
C8 C -0.038(1) 0.250(1) -0.0593(9)
C9 C -0.024(2) 0.164(1) 0.013(1)
C10 C -0.020(1) 0.298(1) 0.1554(8)
C11 C -0.028(1) 0.426(1) 0.1265(9)
C12 C -0.280(1) 0.458(1) 0.1185(9)
H1 H -0.2972 0.2655 0.0271
H2 H -0.3149 0.6256 0.0046
H3 H -0.3332 0.6072 -0.1384
H4 H -0.3284 0.4176 -0.1972
H5 H -0.3569 0.1899 -0.1713
H6 H -0.2966 0.1429 -0.0852
H7 H -0.0620 0.3263 -0.0371
H8 H 0.0469 0.2661 -0.0627
H9 H 0.0053 0.0874 -0.0039
H10 H -0.1062 0.1453 0.0200
H11 H -0.1032 0.2674 0.1435
H12 H 0.0107 0.2985 0.2126
H13 H -0.0500 0.4227 0.0652
H14 H 0.0570 0.4567 0.1383
H15 H -0.2896 0.3808 0.1423
H16 H -0.3464 0.5065 0.1317
S1B S 0.1412(4) -0.1998(4) 0.1499(3)
S3A S 0.1299(4) 0.0221(4) 0.3369(2)
Ag1B Ag -0.1017(1) -0.0135(1) -0.18348(7)
Ag1A Ag -0.1017(1) 0.5135(1) 0.31652(7)
S4 S 0.2288(5) 0.0285(6) 0.8815(4)
F1 F 0.323(1) 0.233(1) 0.875(1)
F2 F 0.445(1) 0.114(1) 0.911(1)
F3 F 0.362(2) 0.115(1) 0.7962(8)
O1 O 0.126(1) 0.067(1) 0.833(1)
O2 O 0.236(2) 0.049(2) 0.963(1)
O3 O 0.270(2) -0.081(1) 0.870(2)
C13 C 0.340(2) 0.125(2) 0.860(2)
N1 N 0.359(2) 0.061(2) 0.219(1)
C14 C 0.401(2) 0.105(2) 0.179(1)
C15 C 0.452(2) 0.168(2) 0.122(2)
H17 H 0.3946 0.2234 0.0854
H18 H 0.4814 0.1172 0.0840
H19 H 0.5234 0.2193 0.1452
loop_
_geom_bond_atom_site_label_1
_geom_bond_atom_site_label_2
_geom_bond_site_symmetry_1
_geom_bond_site_symmetry_2
Ag1 S2 1_555 1_555
S1 C7 1_555 1_555
S2 C9 1_555 1_555
S3 C11 1_555 1_555
C1 C2 1_555 1_555
C2 C3 1_555 1_555
C3 C4 1_555 1_555
C4 C5 1_555 1_555
C5 C6 1_555 1_555
C6 C1 1_555 1_555
C7 C6 1_555 1_555
C8 S1 1_555 1_555
C9 C8 1_555 1_555
C10 S2 1_555 1_555
C11 C10 1_555 1_555
C12 S3 1_555 1_555
H1 C1 1_555 1_555
H2 C3 1_555 1_555
H3 C4 1_555 1_555
H4 C5 1_555 1_555
H5 C7 1_555 1_555
H6 C7 1_555 1_555
H7 C8 1_555 1_555
H8 C8 1_555 1_555
H9 C9 1_555 1_555
H10 C9 1_555 1_555
H11 C10 1_555 1_555
H12 C10 1_555 1_555
H13 C11 1_555 1_555
H14 C11 1_555 1_555
H15 C12 1_555 1_555
H16 C12 1_555 1_555
S4 O1 1_555 1_555
F1 C13 1_555 1_555
F2 C13 1_555 1_555
F3 C13 1_555 1_555
O2 S4 1_555 1_555
O3 S4 1_555 1_555
C13 S4 1_555 1_555
N1 C14 1_555 1_555
C14 C15 1_555 1_555
C15 H17 1_555 1_555
H18 C15 1_555 1_555
H19 C15 1_555 1_555
S1B Ag1 1_555 1_555
S3A Ag1 1_555 1_555
Ag1B S1 1_555 1_555
Ag1A S3 1_555 1_555
C2 C12 1_555 1_555

#END
