
#######################################################################
#
#                 Cambridge Crystallographic Data Centre
#                                CCDC 
#
#######################################################################
#
# If this CIF has been generated from an entry in the Cambridge 
# Structural Database, then it will include bibliographic, chemical, 
# crystal, experimental, refinement or atomic coordinate data resulting 
# from the CCDC's data processing and validation procedures.
#
#######################################################################

data_ZIDTUD
_symmetry_cell_setting           triclinic
_symmetry_space_group_name_H-M   'P -1'
_symmetry_Int_Tables_number      2
_space_group_name_Hall           '-P 1'
loop_
_symmetry_equiv_pos_site_id
_symmetry_equiv_pos_as_xyz
1 x,y,z
2 -x,-y,-z
_cell_length_a                   9.1069(12)
_cell_length_b                   10.5452(13)
_cell_length_c                   13.5137(17)
_cell_angle_alpha                100.4410(10)
_cell_angle_beta                 102.8500(10)
_cell_angle_gamma                102.9220(10)
_cell_volume                     1196.25
loop_
_atom_site_label
_atom_site_type_symbol
_atom_site_fract_x
_atom_site_fract_y
_atom_site_fract_z
La1 La 1.027403(16) 0.213916(14) 0.024120(11)
La2 La 0.640364(16) 0.393989(14) -0.079143(11)
S1 S 0.95619(11) 0.62733(11) 0.42281(6)
S2 S 0.78564(16) -0.01445(11) -0.48603(7)
S3 S 0.64551(16) 0.18057(13) 0.35454(8)
O1 O 1.1333(2) 0.47268(19) 0.14150(15)
O2 O 0.8802(2) 0.39815(19) 0.06796(15)
O3 O 0.8006(2) 0.63418(18) 0.05262(14)
O4 O 0.6526(2) 0.71580(19) 0.14592(15)
O5 O 0.8831(3) -0.19974(19) -0.21574(15)
O6 O 0.9453(2) -0.00123(19) -0.10786(14)
O7 O 0.8309(2) 0.23058(19) -0.13011(14)
O8 O 0.6194(2) 0.2275(2) -0.24787(15)
O9 O 0.7764(2) 0.11269(19) 0.05515(16)
O10 O 0.5748(2) 0.18410(19) -0.01633(15)
O11 O 0.5387(2) 0.42755(18) 0.07802(14)
O12 O 0.4481(3) 0.4752(2) 0.21333(16)
O13 O 1.2762(2) 0.1518(2) 0.02448(17)
H1 H 1.3539 0.1886 0.0046
H2 H 1.2851 0.0729 0.0223
C1 C 1.0324(4) 0.5485(3) 0.3322(2)
H3 H 1.1099 0.5054 0.3484
C2 C 0.9655(3) 0.5569(3) 0.2337(2)
C3 C 0.8515(3) 0.6318(3) 0.2321(2)
C4 C 0.8365(4) 0.6760(3) 0.3299(2)
H4 H 0.7688 0.7266 0.3441
C5 C 0.9951(3) 0.4758(3) 0.1413(2)
C6 C 0.7609(3) 0.6635(3) 0.1384(2)
C7 C 0.8583(5) -0.0825(4) -0.3869(2)
H5 H 0.9026 -0.1537 -0.3960
C8 C 0.8444(4) -0.0211(3) -0.2928(2)
C9 C 0.7705(3) 0.0858(3) -0.3024(2)
C10 C 0.7300(4) 0.0958(3) -0.4033(2)
H6 H 0.6774 0.1564 -0.4248
C11 C 0.8932(3) -0.0769(3) -0.2003(2)
C12 C 0.7376(3) 0.1850(3) -0.2214(2)
C13 C 0.6819(5) 0.1274(4) 0.2377(3)
H7 H 0.7243 0.0560 0.2231
C14 C 0.6420(3) 0.2008(3) 0.1684(2)
C15 C 0.5795(3) 0.3056(3) 0.2124(2)
C16 C 0.5788(4) 0.3062(4) 0.3135(3)
H8 H 0.5458 0.3681 0.3552
C17 C 0.6632(3) 0.1646(3) 0.0612(2)
C18 C 0.5189(3) 0.4077(3) 0.1653(2)
La1A La 0.972597(16) -0.213916(14) -0.024120(11)
La1A_2 La 0.972597(16) 0.786084(14) -0.024120(11)
La2A La 0.359636(16) 0.606011(14) 0.079143(11)
La2A_2 La 1.359636(16) 0.606011(14) 0.079143(11)
O1A O 0.8667(2) 0.52732(19) -0.14150(15)
O3A O 1.1994(2) 0.36582(18) -0.05262(14)
O4A O 0.3474(2) 0.28420(19) -0.14592(15)
O5A O 1.1169(3) 0.19974(19) 0.21574(15)
O6A O 1.0547(2) 0.00123(19) 0.10786(14)
O11A O 0.4613(2) 0.57245(18) -0.07802(14)
O12A O 0.5519(3) 0.5248(2) -0.21333(16)
O14 O 0.5305(4) 0.3404(4) 0.5629(2)
H9 H 0.5241 0.3056 0.6144
H10 H 0.5772 0.4216 0.5679
O15 O 0.7032(4) 0.6026(3) 0.5845(2)
H11 H 0.7461 0.6662 0.6390
H12 H 0.6449 0.6284 0.5384
loop_
_geom_bond_atom_site_label_1
_geom_bond_atom_site_label_2
_geom_bond_site_symmetry_1
_geom_bond_site_symmetry_2
La1 O1 1_555 1_555
La2 O2 1_555 1_555
S1 C1 1_555 1_555
S2 C7 1_555 1_555
S3 C13 1_555 1_555
O1 C5 1_555 1_555
O2 La1 1_555 1_555
O3 La2 1_555 1_555
O4 C6 1_555 1_555
O5 C11 1_555 1_555
O6 La1 1_555 1_555
O7 La1 1_555 1_555
O8 La2 1_555 1_555
O9 La1 1_555 1_555
O10 La2 1_555 1_555
O11 La2 1_555 1_555
O12 C18 1_555 1_555
O13 La1 1_555 1_555
H1 O13 1_555 1_555
H2 O13 1_555 1_555
C1 H3 1_555 1_555
C2 C1 1_555 1_555
C3 C2 1_555 1_555
C4 S1 1_555 1_555
H4 C4 1_555 1_555
C5 O2 1_555 1_555
C6 O3 1_555 1_555
C7 H5 1_555 1_555
C8 C7 1_555 1_555
C9 C8 1_555 1_555
C10 S2 1_555 1_555
H6 C10 1_555 1_555
C11 O6 1_555 1_555
C12 O7 1_555 1_555
C13 H7 1_555 1_555
C14 C13 1_555 1_555
C15 C14 1_555 1_555
C16 S3 1_555 1_555
H8 C16 1_555 1_555
C17 O9 1_555 1_555
C18 O11 1_555 1_555
O14 H9 1_555 1_555
H10 O14 1_555 1_555
O15 H11 1_555 1_555
H12 O15 1_555 1_555
La1A O5 1_555 1_555
La1A_2 O3 1_555 1_555
La2A O4 1_555 1_555
La2A_2 O1 1_555 1_555
O1A La2 1_555 1_555
O3A La1 1_555 1_555
O4A La2 1_555 1_555
O5A La1 1_555 1_555
O6A La1 1_555 1_555
O11A La2 1_555 1_555
O12A La2 1_555 1_555
La2 O7 1_555 1_555
O6 La1A 1_555 1_555
O8 C12 1_555 1_555
O10 C17 1_555 1_555
O11 La2A 1_555 1_555
O12 La2A 1_555 1_555
C2 C5 1_555 1_555
C3 C4 1_555 1_555
C3 C6 1_555 1_555
C8 C11 1_555 1_555
C9 C10 1_555 1_555
C9 C12 1_555 1_555
C14 C17 1_555 1_555
C15 C16 1_555 1_555
C15 C18 1_555 1_555
La1A O6A 1_555 1_555
La1A_2 O1A 1_555 1_555
La2A O11A 1_555 1_555
La2A_2 O3A 1_555 1_555

#END
