
#######################################################################
#
#                 Cambridge Crystallographic Data Centre
#                                CCDC 
#
#######################################################################
#
# If this CIF has been generated from an entry in the Cambridge 
# Structural Database, then it will include bibliographic, chemical, 
# crystal, experimental, refinement or atomic coordinate data resulting 
# from the CCDC's data processing and validation procedures.
#
#######################################################################

data_ZIDYUI
_symmetry_cell_setting           monoclinic
_symmetry_space_group_name_H-M   'P 21'
_symmetry_Int_Tables_number      4
_space_group_name_Hall           'P 2yb'
loop_
_symmetry_equiv_pos_site_id
_symmetry_equiv_pos_as_xyz
1 x,y,z
2 -x,1/2+y,-z
_cell_length_a                   9.6735(19)
_cell_length_b                   9.6397(19)
_cell_length_c                   11.278(2)
_cell_angle_alpha                90
_cell_angle_beta                 109.00(3)
_cell_angle_gamma                90
_cell_volume                     994.373
loop_
_atom_site_label
_atom_site_type_symbol
_atom_site_fract_x
_atom_site_fract_y
_atom_site_fract_z
Ru1 Ru 0.65287(7) 0.85566(5) 1.02149(6)
Ru2 Ru 0.85261(7) 0.75580(5) 0.99570(6)
Mn1 Mn 0.69157(14) 1.01210(14) 0.55059(11)
K1 K 1.0728(3) 0.9075(2) 0.8202(2)
C1 C 0.6385(9) 0.8444(9) 0.7600(7)
C2 C 0.8779(11) 0.7917(9) 1.2618(9)
C3 C 0.8847(10) 1.0539(10) 1.0287(8)
C4 C 0.6172(11) 0.5565(10) 0.9765(9)
O1 O 0.5642(6) 0.8787(7) 0.8322(5)
O2 O 0.7644(7) 0.7834(6) 0.8069(5)
O3 O 0.5855(6) 0.8699(6) 0.6429(5)
O4 O 0.9409(6) 0.7349(7) 1.1855(5)
O5 O 0.7440(7) 0.8369(7) 1.2108(5)
O6 O 0.9483(7) 0.8045(7) 1.3761(5)
O7 O 0.7551(6) 1.0420(6) 1.0396(5)
O8 O 0.9497(7) 0.9429(6) 1.0103(6)
O9 O 0.9456(7) 1.1712(7) 1.0418(6)
O10 O 0.5512(7) 0.6672(6) 1.0021(6)
O11 O 0.7531(6) 0.5686(6) 0.9785(5)
O12 O 0.5567(7) 0.4421(6) 0.9573(6)
O13 O 0.8029(6) 1.1014(7) 0.7342(5)
H1 H 0.7442 1.0956 0.7892
H2 H 0.8308 1.1971 0.7279
O14 O 0.8663(6) 0.8514(7) 0.5765(5)
H3 H 0.9123 0.8596 0.5121
H4 H 0.8260 0.7587 0.5732
O15 O 0.5105(7) 1.1566(7) 0.5306(6)
H5 H 0.4400 1.1473 0.4483
H6 H 0.5478 1.2497 0.5417
O16 O 0.8241(7) 1.1426(7) 0.4749(6)
H7 H 0.7625 1.1890 0.4014
H8 H 0.8736 1.2101 0.5367
O17 O 0.5804(7) 0.9398(7) 0.3625(5)
H9 H 0.4910 0.9908 0.3280
H10 H 0.6418 0.9544 0.3118
O18 O 1.2958(8) 1.0347(9) 0.7040(7)
H11 H 1.3934 1.0176 0.7590
H12 H 1.2797 1.1329 0.6939
O19 O 1.2731(7) 0.7223(7) 0.7739(6)
H13 H 1.3554 0.7113 0.8489
H14 H 1.2268 0.6340 0.7492
Ru1A Ru 0.34713(7) 0.35566(5) 0.97851(6)
Ru2A Ru 1.14739(7) 1.25580(5) 1.00430(6)
K1A K 0.9272(3) 0.4075(2) 1.1798(2)
K1A_2 K 0.9272(3) 1.4075(2) 1.1798(2)
O4A O 1.0591(6) 1.2349(7) 0.8145(5)
O9A O 1.0544(7) 0.6712(7) 0.9582(6)
O11A O 1.2469(6) 1.0686(6) 1.0215(5)
O12A O 0.4433(7) 0.9421(6) 1.0427(6)
O20 O 0.4130(8) 0.7038(7) 0.1860(6)
O21 O 0.1528(8) 0.0529(8) 0.4361(7)
O22 O 0.7152(8) 0.4488(8) 0.7337(7)
loop_
_geom_bond_atom_site_label_1
_geom_bond_atom_site_label_2
_geom_bond_site_symmetry_1
_geom_bond_site_symmetry_2
Ru1 Ru2 1_555 1_555
Ru2 O2 1_555 1_555
Mn1 O3 1_555 1_555
K1 O2 1_555 1_555
C1 O1 1_555 1_555
C2 O4 1_555 1_555
C3 O7 1_555 1_555
C4 O10 1_555 1_555
O1 Ru1 1_555 1_555
O2 C1 1_555 1_555
O3 C1 1_555 1_555
O4 Ru2 1_555 1_555
O5 Ru1 1_555 1_555
O6 C2 1_555 1_555
O7 Ru1 1_555 1_555
O8 Ru2 1_555 1_555
O9 C3 1_555 1_555
O10 Ru1 1_555 1_555
O11 Ru2 1_555 1_555
O12 C4 1_555 1_555
O13 Mn1 1_555 1_555
H1 O13 1_555 1_555
H2 O13 1_555 1_555
O14 Mn1 1_555 1_555
H3 O14 1_555 1_555
H4 O14 1_555 1_555
O15 Mn1 1_555 1_555
H5 O15 1_555 1_555
H6 O15 1_555 1_555
O16 Mn1 1_555 1_555
H7 O16 1_555 1_555
H8 O16 1_555 1_555
O17 Mn1 1_555 1_555
H9 O17 1_555 1_555
H10 O17 1_555 1_555
O18 K1 1_555 1_555
H11 O18 1_555 1_555
H12 O18 1_555 1_555
O19 K1 1_555 1_555
H13 O19 1_555 1_555
H14 O19 1_555 1_555
Ru1A O12 1_555 1_555
Ru2A O9 1_555 1_555
K1A O4 1_555 1_555
K1A_2 O9 1_555 1_555
O4A K1 1_555 1_555
O9A Ru2 1_555 1_555
O11A K1 1_555 1_555
O12A Ru1 1_555 1_555
K1 O8 1_555 1_555
K1 O13 1_555 1_555
K1 O14 1_555 1_555
K1 O9A 1_555 1_555
C2 O5 1_555 1_555
C3 O8 1_555 1_555
C4 O11 1_555 1_555
O11 K1A 1_555 1_555
Ru2A O4A 1_555 1_555
Ru2A O11A 1_555 1_555

#END
