
#######################################################################
#
#                 Cambridge Crystallographic Data Centre
#                                CCDC 
#
#######################################################################
#
# If this CIF has been generated from an entry in the Cambridge 
# Structural Database, then it will include bibliographic, chemical, 
# crystal, experimental, refinement or atomic coordinate data resulting 
# from the CCDC's data processing and validation procedures.
#
#######################################################################

data_ZIDYAO
_symmetry_cell_setting           monoclinic
_symmetry_space_group_name_H-M   'P 21/c'
_symmetry_Int_Tables_number      14
_space_group_name_Hall           '-P 2ybc'
loop_
_symmetry_equiv_pos_site_id
_symmetry_equiv_pos_as_xyz
1 x,y,z
2 -x,1/2+y,1/2-z
3 -x,-y,-z
4 x,1/2-y,1/2+z
_cell_length_a                   7.7763(3)
_cell_length_b                   11.1774(3)
_cell_length_c                   9.2900(2)
_cell_angle_alpha                90
_cell_angle_beta                 93.539(3)
_cell_angle_gamma                90
_cell_volume                     805.936
loop_
_atom_site_label
_atom_site_type_symbol
_atom_site_fract_x
_atom_site_fract_y
_atom_site_fract_z
C1 C 0.8173(4) 0.1278(2) 0.0837(3)
C2 C 0.7245(4) 0.2222(2) 0.0178(3)
H1 H 0.7388 0.2994 0.0538
C3 C 0.6124(4) 0.2019(3) -0.0996(3)
H2 H 0.5475 0.2642 -0.1413
C4 C 0.5978(4) 0.0871(3) -0.1549(3)
C5 C 0.6888(4) -0.0081(3) -0.0935(3)
H3 H 0.6770 -0.0846 -0.1323
C6 C 0.7977(4) 0.0131(2) 0.0267(3)
H4 H 0.8588 -0.0501 0.0702
C7 C 0.9333(4) 0.1501(2) 0.2115(3)
Cu1 Cu 1.07317(5) 0.40165(3) 0.13620(4)
N1 N 1.0197(3) 0.2524(2) 0.2411(2)
N2 N 1.1019(4) 0.2376(2) 0.3715(2)
N3 N 1.0672(3) 0.1306(2) 0.4191(2)
N4 N 0.9630(3) 0.0719(2) 0.3206(2)
N5 N 0.4768(4) 0.0654(2) -0.2797(3)
O1 O 0.4722(4) -0.0335(2) -0.3347(3)
O2 O 0.3828(3) 0.1478(2) -0.3232(3)
Cu1A Cu 0.92683(5) -0.09835(3) 0.36380(4)
Cu1C Cu 0.07317(5) 0.09835(3) -0.36380(4)
Cu1C_2 Cu 1.07317(5) 0.09835(3) 0.63620(4)
N3C N 1.0672(3) 0.3694(2) -0.0809(2)
N4A N 1.0370(3) 0.5719(2) 0.1794(2)
O2C O 1.3828(3) 0.3522(2) 0.1768(3)
loop_
_geom_bond_atom_site_label_1
_geom_bond_atom_site_label_2
_geom_bond_site_symmetry_1
_geom_bond_site_symmetry_2
C1 C2 1_555 1_555
C2 H1 1_555 1_555
C3 C2 1_555 1_555
H2 C3 1_555 1_555
C4 C3 1_555 1_555
C5 C4 1_555 1_555
H3 C5 1_555 1_555
C6 C1 1_555 1_555
H4 C6 1_555 1_555
C7 C1 1_555 1_555
Cu1 N1 1_555 1_555
N1 C7 1_555 1_555
N2 N1 1_555 1_555
N3 N2 1_555 1_555
N4 C7 1_555 1_555
N5 C4 1_555 1_555
O1 N5 1_555 1_555
O2 N5 1_555 1_555
Cu1A N4 1_555 1_555
Cu1C O2 1_555 1_555
Cu1C_2 N3 1_555 1_555
N3C Cu1 1_555 1_555
N4A Cu1 1_555 1_555
O2C Cu1 1_555 1_555
C5 C6 1_555 1_555
N3 N4 1_555 1_555

#END
