
#######################################################################
#
#                 Cambridge Crystallographic Data Centre
#                                CCDC 
#
#######################################################################
#
# If this CIF has been generated from an entry in the Cambridge 
# Structural Database, then it will include bibliographic, chemical, 
# crystal, experimental, refinement or atomic coordinate data resulting 
# from the CCDC's data processing and validation procedures.
#
#######################################################################

data_ZIFGAY
_symmetry_cell_setting           triclinic
_symmetry_space_group_name_H-M   'P -1'
_symmetry_Int_Tables_number      2
_space_group_name_Hall           '-P 1'
loop_
_symmetry_equiv_pos_site_id
_symmetry_equiv_pos_as_xyz
1 x,y,z
2 -x,-y,-z
_cell_length_a                   9.3862(19)
_cell_length_b                   9.5838(19)
_cell_length_c                   10.000(2)
_cell_angle_alpha                111.38(3)
_cell_angle_beta                 96.05(3)
_cell_angle_gamma                105.42(3)
_cell_volume                     786.718
loop_
_atom_site_label
_atom_site_type_symbol
_atom_site_fract_x
_atom_site_fract_y
_atom_site_fract_z
I1 I -0.38051(4) -1.34669(4) -0.26495(4)
S1 S -0.77489(18) -1.31804(18) -0.50084(16)
C1 C -0.7625(7) -1.1804(7) -0.3289(7)
I2 I -0.37663(4) -1.16037(4) -0.59527(4)
S2 S -0.19768(19) -0.83571(19) -0.18434(17)
N1 N -0.6468(6) -1.1238(7) -0.2126(6)
H1 H -0.5700 -1.1602 -0.2121
Cu1 Cu -0.55388(11) -1.37943(11) -0.50514(10)
C2 C -0.6621(8) -0.9937(8) -0.0852(7)
H2 H -0.5846 -0.8911 -0.0648
H3 H -0.6543 -1.0153 0.0044
Cu2 Cu -0.34189(11) -0.87014(11) -0.40060(10)
C3 C -0.8218(8) -0.9954(8) -0.1384(7)
H4 H -0.8909 -1.0260 -0.0782
H5 H -0.8201 -0.8901 -0.1340
N2 N -0.8687(6) -1.1146(6) -0.2912(6)
C4 C -1.0080(7) -1.1411(9) -0.3875(8)
H6 H -1.0215 -1.2283 -0.4828
H7 H -1.0034 -1.0444 -0.4022
H8 H -1.0936 -1.1685 -0.3430
C5 C -0.2202(7) -0.6795(7) -0.0455(6)
N3 N -0.3378(6) -0.6283(6) -0.0502(6)
H9 H -0.4203 -0.6778 -0.1214
C6 C -0.3147(7) -0.4793(8) 0.0773(7)
H10 H -0.4057 -0.4823 0.1194
H11 H -0.2872 -0.3868 0.0513
C7 C -0.1815(7) -0.4769(8) 0.1829(7)
H12 H -0.1036 -0.3703 0.2300
H13 H -0.2168 -0.5091 0.2605
N4 N -0.1232(6) -0.5923(6) 0.0859(5)
C8 C 0.0128(7) -0.6149(8) 0.1390(7)
H14 H 0.0367 -0.6937 0.0579
H15 H -0.0016 -0.6524 0.2172
H16 H 0.0966 -0.5140 0.1782
I1A I -0.61949(4) -1.65331(4) -0.73505(4)
S1A S -0.22511(18) -0.68196(18) -0.49916(16)
I2A I -0.62337(4) -0.83963(4) -0.40473(4)
Cu1A Cu -0.44612(11) -1.62057(11) -0.49486(10)
Cu2A Cu -0.65811(11) -1.12986(11) -0.59940(10)
loop_
_geom_bond_atom_site_label_1
_geom_bond_atom_site_label_2
_geom_bond_site_symmetry_1
_geom_bond_site_symmetry_2
I1 Cu1 1_555 1_555
S1 C1 1_555 1_555
C1 N1 1_555 1_555
I2 Cu1 1_555 1_555
S2 Cu2 1_555 1_555
N1 H1 1_555 1_555
Cu1 S1 1_555 1_555
C2 N1 1_555 1_555
H2 C2 1_555 1_555
H3 C2 1_555 1_555
Cu2 I2 1_555 1_555
C3 C2 1_555 1_555
H4 C3 1_555 1_555
H5 C3 1_555 1_555
N2 C1 1_555 1_555
C4 N2 1_555 1_555
H6 C4 1_555 1_555
H7 C4 1_555 1_555
H8 C4 1_555 1_555
C5 S2 1_555 1_555
N3 C5 1_555 1_555
H9 N3 1_555 1_555
C6 N3 1_555 1_555
H10 C6 1_555 1_555
H11 C6 1_555 1_555
C7 C6 1_555 1_555
H12 C7 1_555 1_555
H13 C7 1_555 1_555
N4 C5 1_555 1_555
C8 N4 1_555 1_555
H14 C8 1_555 1_555
H15 C8 1_555 1_555
H16 C8 1_555 1_555
I1A Cu1 1_555 1_555
S1A Cu2 1_555 1_555
I2A Cu2 1_555 1_555
Cu1A I1 1_555 1_555
Cu2A S1 1_555 1_555
I2 Cu2A 1_555 1_555
C3 N2 1_555 1_555
C7 N4 1_555 1_555
I1A Cu1A 1_555 1_555
I2A Cu2A 1_555 1_555

#END
