
#######################################################################
#
#                 Cambridge Crystallographic Data Centre
#                                CCDC 
#
#######################################################################
#
# If this CIF has been generated from an entry in the Cambridge 
# Structural Database, then it will include bibliographic, chemical, 
# crystal, experimental, refinement or atomic coordinate data resulting 
# from the CCDC's data processing and validation procedures.
#
#######################################################################

data_ZIFRUB
_symmetry_cell_setting           orthorhombic
_symmetry_space_group_name_H-M   'C c c a'
_symmetry_Int_Tables_number      68
_space_group_name_Hall           '-C 2a 2bc'
loop_
_symmetry_equiv_pos_site_id
_symmetry_equiv_pos_as_xyz
1 x,y,z
2 -x,1/2-y,z
3 1/2+x,-y,1/2-z
4 1/2-x,1/2+y,1/2-z
5 1/2+x,1/2+y,z
6 1/2-x,-y,z
7 x,1/2-y,1/2-z
8 -x,y,1/2-z
9 -x,-y,-z
10 x,1/2+y,-z
11 1/2-x,y,1/2+z
12 1/2+x,1/2-y,1/2+z
13 1/2-x,1/2-y,-z
14 1/2+x,y,-z
15 -x,1/2+y,1/2+z
16 x,-y,1/2+z
_cell_length_a                   10.236(2)
_cell_length_b                   10.599(2)
_cell_length_c                   10.291(2)
_cell_angle_alpha                90
_cell_angle_beta                 90
_cell_angle_gamma                90
_cell_volume                     1116.48
loop_
_atom_site_label
_atom_site_type_symbol
_atom_site_fract_x
_atom_site_fract_y
_atom_site_fract_z
Fe1 Fe 0.5000 0.2500 0.2500
Cl1 Cl 0.5000 0.0232(1) 0.2500
N1 N 0.6543(1) 0.2490(2) 0.0970(1)
C1 C 0.7571(2) 0.3267(2) 0.1024(2)
C2 C 0.6481(2) 0.1723(2) -0.0065(2)
H1 H 0.7620(18) 0.3813(17) 0.1795(15)
H2 H 0.5734(17) 0.1125(17) -0.0093(21)
Cl1A Cl 0.5000 0.4768(1) 0.2500
N1A N 0.3457(1) 0.2510(2) 0.0970(1)
N1F N 0.6543(1) 0.2510(2) 0.4030(1)
N1G N 0.3457(1) 0.2490(2) 0.4030(1)
C2L C 0.8519(2) 0.3277(2) 0.0065(2)
C1L C 0.7429(2) 0.1733(2) -0.1024(2)
C1A C 0.2429(2) 0.1733(2) 0.1024(2)
C2A C 0.3519(2) 0.3277(2) -0.0065(2)
N1L N 0.8457(1) 0.2510(2) -0.0970(1)
H2L H 0.9266(17) 0.3875(17) 0.0093(21)
H1L H 0.7380(18) 0.1187(17) -0.1795(15)
C2M C 0.1481(2) 0.1723(2) 0.0065(2)
H1A H 0.2380(18) 0.1187(17) 0.1795(15)
C1M C 0.2571(2) 0.3267(2) -0.1024(2)
H2A H 0.4266(17) 0.3875(17) -0.0093(21)
Fe1J Fe 1.0000 0.2500 -0.2500
N1M N 0.1543(1) 0.2490(2) -0.0970(1)
H2M H 0.0734(17) 0.1125(17) 0.0093(21)
H1M H 0.2620(18) 0.3813(17) -0.1795(15)
Fe1J_2 Fe 0.0000 0.2500 -0.2500
loop_
_geom_bond_atom_site_label_1
_geom_bond_atom_site_label_2
_geom_bond_site_symmetry_1
_geom_bond_site_symmetry_2
Fe1 Cl1 1_555 1_555
N1 Fe1 1_555 1_555
C1 N1 1_555 1_555
C2 N1 1_555 1_555
H1 C1 1_555 1_555
H2 C2 1_555 1_555
Cl1A Fe1 1_555 1_555
N1A Fe1 1_555 1_555
N1F Fe1 1_555 1_555
N1G Fe1 1_555 1_555
C2L C1 1_555 1_555
C1L C2 1_555 1_555
C1A N1A 1_555 1_555
C2A N1A 1_555 1_555
N1L C2L 1_555 1_555
H2L C2L 1_555 1_555
H1L C1L 1_555 1_555
C2M C1A 1_555 1_555
H1A C1A 1_555 1_555
C1M C2A 1_555 1_555
H2A C2A 1_555 1_555
Fe1J N1L 1_555 1_555
N1M C2M 1_555 1_555
H2M C2M 1_555 1_555
H1M C1M 1_555 1_555
Fe1J_2 N1M 1_555 1_555
C1L N1L 1_555 1_555
C1M N1M 1_555 1_555

#END
