
#######################################################################
#
#                 Cambridge Crystallographic Data Centre
#                                CCDC 
#
#######################################################################
#
# If this CIF has been generated from an entry in the Cambridge 
# Structural Database, then it will include bibliographic, chemical, 
# crystal, experimental, refinement or atomic coordinate data resulting 
# from the CCDC's data processing and validation procedures.
#
#######################################################################

data_ZIGKAB
_symmetry_cell_setting           triclinic
_symmetry_space_group_name_H-M   'P -1'
_symmetry_Int_Tables_number      2
_space_group_name_Hall           '-P 1'
loop_
_symmetry_equiv_pos_site_id
_symmetry_equiv_pos_as_xyz
1 x,y,z
2 -x,-y,-z
_cell_length_a                   11.844(5)
_cell_length_b                   17.167(7)
_cell_length_c                   10.378(4)
_cell_angle_alpha                101.71(3)
_cell_angle_beta                 115.55(2)
_cell_angle_gamma                72.62(3)
_cell_volume                     1810.1
loop_
_atom_site_label
_atom_site_type_symbol
_atom_site_fract_x
_atom_site_fract_y
_atom_site_fract_z
O1 O 0.8221(5) 0.1148(4) 0.4736(6)
O2 O 1.0051(5) 0.0610(4) 0.3165(6)
O3 O 0.9904(5) 0.1088(4) 0.6840(6)
O4 O 0.8275(5) -0.0543(4) 0.4738(6)
O5 O 0.1637(5) 0.4036(3) -0.5642(6)
O6 O 0.1880(5) 0.5045(3) -0.2871(6)
O7 O -0.0896(5) 0.3821(3) -0.5977(6)
O8 O -0.0662(5) 0.4832(3) -0.3221(6)
N1 N 0.7009(7) 0.0319(5) 0.1705(7)
N2 N 0.2042(7) 0.3203(5) -0.2911(8)
C1 C 0.8756(8) 0.1409(5) 0.6026(9)
C2 C 0.796(1) 0.2124(7) 0.667(1)
C3 C 0.767(2) 0.286(1) 0.597(2)
C4 C 0.869(3) 0.239(2) 0.806(3)
C5 C 0.680(2) 0.198(2) 0.646(3)
C6 C 1.1171(8) 0.0723(5) 0.3968(9)
C7 C 1.1871(9) 0.1064(6) 0.339(1)
C8 C 1.131(2) 0.100(1) 0.182(2)
C9 C 1.173(2) 0.190(2) 0.377(3)
C10 C 1.316(2) 0.063(2) 0.376(3)
C11 C 0.1468(8) 0.4488(5) -0.6570(9)
C12 C 0.229(1) 0.4192(7) -0.745(1)
C13 C 0.338(2) 0.351(1) -0.692(2)
C14 C 0.236(2) 0.482(1) -0.807(2)
C15 C 0.144(2) 0.372(2) -0.882(3)
C16 C 0.1791(7) 0.5781(5) -0.2997(9)
C17 C 0.2805(9) 0.6200(6) -0.186(1)
C18 C 0.314(1) 0.5953(9) -0.039(2)
C19 C 0.399(1) 0.587(1) -0.215(2)
C20 C 0.238(1) 0.711(1) -0.187(2)
C21 C 0.7121(8) 0.0551(6) 0.0634(9)
C22 C 0.6141(8) 0.1077(6) -0.0331(9)
C23 C 0.4985(7) 0.1391(5) -0.0198(8)
C24 C 0.4850(8) 0.1143(6) 0.0912(9)
C25 C 0.5897(9) 0.0614(6) 0.1820(9)
C26 C 0.3265(9) 0.3185(6) -0.242(1)
C27 C 0.4244(8) 0.2604(6) -0.157(1)
C28 C 0.3940(7) 0.2002(5) -0.1155(9)
C29 C 0.2664(8) 0.2000(6) -0.169(1)
C30 C 0.1753(9) 0.2609(6) -0.257(1)
Mo1 Mo 0.92122(7) 0.00300(5) 0.40109(7)
Mo2 Mo 0.04580(7) 0.44655(4) -0.44576(8)
H1 H 0.712 0.332 0.623
H2 H 0.714 0.274 0.488
H3 H 0.839 0.298 0.599
H4 H 0.825 0.287 0.850
H5 H 0.940 0.264 0.805
H6 H 0.918 0.201 0.875
H7 H 0.619 0.244 0.671
H8 H 0.674 0.150 0.662
H9 H 0.622 0.197 0.528
H10 H 1.166 0.128 0.139
H11 H 1.117 0.052 0.133
H12 H 1.034 0.139 0.149
H13 H 1.208 0.219 0.342
H14 H 1.075 0.219 0.338
H15 H 1.197 0.205 0.479
H16 H 1.363 0.084 0.338
H17 H 1.365 0.063 0.478
H18 H 1.325 0.005 0.340
H19 H 0.387 0.333 -0.751
H20 H 0.397 0.367 -0.597
H21 H 0.315 0.304 -0.683
H22 H 0.283 0.459 -0.871
H23 H 0.148 0.507 -0.878
H24 H 0.269 0.522 -0.745
H25 H 0.176 0.350 -0.954
H26 H 0.117 0.329 -0.863
H27 H 0.056 0.411 -0.936
H28 H 0.380 0.620 0.037
H29 H 0.241 0.610 -0.014
H30 H 0.348 0.536 -0.033
H31 H 0.471 0.610 -0.147
H32 H 0.430 0.528 -0.211
H33 H 0.387 0.597 -0.309
H34 H 0.303 0.737 -0.116
H35 H 0.221 0.727 -0.279
H36 H 0.161 0.732 -0.170
H37 H 0.794 0.034 0.053
H38 H 0.626 0.122 -0.112
H39 H 0.404 0.134 0.104
H40 H 0.579 0.045 0.260
H41 H 0.351 0.361 -0.269
H42 H 0.515 0.262 -0.125
H43 H 0.241 0.157 -0.146
H44 H 0.084 0.259 -0.296
Mo1A Mo 1.07878(7) -0.00300(5) 0.59891(7)
C6A C 0.8829(8) -0.0723(5) 0.6032(9)
C16A C -0.1791(7) 0.4219(5) -0.7003(9)
C11A C -0.1468(8) 0.5512(5) -0.3430(9)
O4A O 1.1725(5) 0.0543(4) 0.5262(6)
O8A O 0.0662(5) 0.5168(3) -0.6779(6)
O7A O 0.0896(5) 0.6179(3) -0.4023(6)
O3A O 1.0096(5) -0.1088(4) 0.3160(6)
Mo2A Mo -0.04580(7) 0.55345(4) -0.55424(8)
O5A O -0.1637(5) 0.5964(3) -0.4358(6)
C12A C -0.229(1) 0.5808(7) -0.255(1)
O6A O -0.1880(5) 0.4955(3) -0.7129(6)
C17A C -0.2805(9) 0.3800(6) -0.814(1)
O2A O 0.9949(5) -0.0610(4) 0.6835(6)
C7A C 0.8129(9) -0.1064(6) 0.661(1)
C13A C -0.338(2) 0.649(1) -0.308(2)
C14A C -0.236(2) 0.518(1) -0.193(2)
C15A C -0.144(2) 0.628(2) -0.118(3)
C18A C -0.314(1) 0.4047(9) -0.961(2)
C19A C -0.399(1) 0.413(1) -0.785(2)
C20A C -0.238(1) 0.289(1) -0.813(2)
C8A C 0.869(2) -0.100(1) 0.818(2)
C9A C 0.827(2) -0.190(2) 0.623(3)
C10A C 0.684(2) -0.063(2) 0.624(3)
H19A H -0.387 0.667 -0.249
H20A H -0.397 0.633 -0.403
H21A H -0.315 0.696 -0.317
H22A H -0.283 0.541 -0.129
H23A H -0.148 0.493 -0.122
H24A H -0.269 0.478 -0.255
H25A H -0.176 0.650 -0.046
H26A H -0.117 0.671 -0.137
H27A H -0.056 0.589 -0.064
H28A H -0.380 0.380 -1.037
H29A H -0.241 0.390 -0.986
H30A H -0.348 0.464 -0.967
H31A H -0.471 0.390 -0.853
H32A H -0.430 0.472 -0.789
H33A H -0.387 0.403 -0.691
H34A H -0.303 0.263 -0.884
H35A H -0.221 0.273 -0.721
H36A H -0.161 0.268 -0.830
H10A H 0.834 -0.128 0.861
H11A H 0.883 -0.052 0.867
H12A H 0.966 -0.139 0.851
H13A H 0.792 -0.219 0.658
H14A H 0.925 -0.219 0.662
H15A H 0.803 -0.205 0.521
H16A H 0.637 -0.084 0.662
H17A H 0.635 -0.063 0.522
H18A H 0.675 -0.005 0.660
C1A C 1.1244(8) -0.1409(5) 0.3974(9)
O1A O 1.1779(5) -0.1148(4) 0.5264(6)
C2A C 1.204(1) -0.2124(7) 0.333(1)
C3A C 1.233(2) -0.286(1) 0.403(2)
C4A C 1.131(3) -0.239(2) 0.194(3)
C5A C 1.320(2) -0.198(2) 0.354(3)
H1A H 1.288 -0.332 0.377
H2A H 1.286 -0.274 0.512
H3A H 1.161 -0.298 0.401
H4A H 1.175 -0.287 0.150
H5A H 1.060 -0.264 0.195
H6A H 1.082 -0.201 0.125
H7A H 1.381 -0.244 0.329
H8A H 1.326 -0.150 0.338
H9A H 1.378 -0.197 0.472
N1A N 1.2991(7) -0.0319(5) 0.8295(7)
N2A N -0.2042(7) 0.6797(5) -0.7089(8)
C26A C -0.3265(9) 0.6815(6) -0.758(1)
C30A C -0.1753(9) 0.7391(6) -0.743(1)
C27A C -0.4244(8) 0.7396(6) -0.843(1)
H41A H -0.351 0.639 -0.731
C29A C -0.2664(8) 0.8000(6) -0.831(1)
H44A H -0.084 0.741 -0.704
C28A C -0.3940(7) 0.7998(5) -0.8845(9)
H42A H -0.515 0.738 -0.875
H43A H -0.241 0.843 -0.854
C23A C -0.4985(7) 0.8609(5) -0.9802(8)
C22A C -0.6141(8) 0.8923(6) -0.9669(9)
C24A C -0.4850(8) 0.8857(6) -1.0912(9)
C21A C -0.7121(8) 0.9449(6) -1.0634(9)
H38A H -0.626 0.878 -0.888
C25A C -0.5897(9) 0.9386(6) -1.1820(9)
H39A H -0.404 0.866 -1.104
N1A_2 N -0.7009(7) 0.9681(5) -1.1705(7)
H37A H -0.794 0.966 -1.053
H40A H -0.579 0.955 -1.260
Mo1A_2 Mo -0.92122(7) 0.99700(5) -1.40109(7)
loop_
_geom_bond_atom_site_label_1
_geom_bond_atom_site_label_2
_geom_bond_site_symmetry_1
_geom_bond_site_symmetry_2
O1 C1 1_555 1_555
O2 C6 1_555 1_555
O3 C1 1_555 1_555
O4 Mo1 1_555 1_555
O5 C11 1_555 1_555
O6 C16 1_555 1_555
O7 Mo2 1_555 1_555
O8 Mo2 1_555 1_555
N1 C21 1_555 1_555
N2 C26 1_555 1_555
C1 C2 1_555 1_555
C2 C3 1_555 1_555
C3 H1 1_555 1_555
C4 C2 1_555 1_555
C5 C2 1_555 1_555
C6 C7 1_555 1_555
C7 C8 1_555 1_555
C8 H10 1_555 1_555
C9 C7 1_555 1_555
C10 C7 1_555 1_555
C11 C12 1_555 1_555
C12 C13 1_555 1_555
C13 H19 1_555 1_555
C14 C12 1_555 1_555
C15 C12 1_555 1_555
C16 C17 1_555 1_555
C17 C18 1_555 1_555
C18 H28 1_555 1_555
C19 C17 1_555 1_555
C20 C17 1_555 1_555
C21 C22 1_555 1_555
C22 C23 1_555 1_555
C23 C24 1_555 1_555
C24 C25 1_555 1_555
C25 N1 1_555 1_555
C26 C27 1_555 1_555
C27 C28 1_555 1_555
C28 C23 1_555 1_555
C29 C28 1_555 1_555
C30 N2 1_555 1_555
Mo1 O1 1_555 1_555
Mo2 O5 1_555 1_555
H2 C3 1_555 1_555
H3 C3 1_555 1_555
H4 C4 1_555 1_555
H5 C4 1_555 1_555
H6 C4 1_555 1_555
H7 C5 1_555 1_555
H8 C5 1_555 1_555
H9 C5 1_555 1_555
H11 C8 1_555 1_555
H12 C8 1_555 1_555
H13 C9 1_555 1_555
H14 C9 1_555 1_555
H15 C9 1_555 1_555
H16 C10 1_555 1_555
H17 C10 1_555 1_555
H18 C10 1_555 1_555
H20 C13 1_555 1_555
H21 C13 1_555 1_555
H22 C14 1_555 1_555
H23 C14 1_555 1_555
H24 C14 1_555 1_555
H25 C15 1_555 1_555
H26 C15 1_555 1_555
H27 C15 1_555 1_555
H29 C18 1_555 1_555
H30 C18 1_555 1_555
H31 C19 1_555 1_555
H32 C19 1_555 1_555
H33 C19 1_555 1_555
H34 C20 1_555 1_555
H35 C20 1_555 1_555
H36 C20 1_555 1_555
H37 C21 1_555 1_555
H38 C22 1_555 1_555
H39 C24 1_555 1_555
H40 C25 1_555 1_555
H41 C26 1_555 1_555
H42 C27 1_555 1_555
H43 C29 1_555 1_555
H44 C30 1_555 1_555
Mo1A O3 1_555 1_555
C6A O4 1_555 1_555
C16A O7 1_555 1_555
C11A O8 1_555 1_555
O4A C6 1_555 1_555
O8A C11 1_555 1_555
O7A C16 1_555 1_555
O3A Mo1 1_555 1_555
Mo2A Mo2 1_555 1_555
O5A C11A 1_555 1_555
C12A C11A 1_555 1_555
O6A C16A 1_555 1_555
C17A C16A 1_555 1_555
O2A Mo1A 1_555 1_555
C7A C6A 1_555 1_555
C13A C12A 1_555 1_555
C14A C12A 1_555 1_555
C15A C12A 1_555 1_555
C18A C17A 1_555 1_555
C19A C17A 1_555 1_555
C20A C17A 1_555 1_555
C8A C7A 1_555 1_555
C9A C7A 1_555 1_555
C10A C7A 1_555 1_555
H19A C13A 1_555 1_555
H20A C13A 1_555 1_555
H21A C13A 1_555 1_555
H22A C14A 1_555 1_555
H23A C14A 1_555 1_555
H24A C14A 1_555 1_555
H25A C15A 1_555 1_555
H26A C15A 1_555 1_555
H27A C15A 1_555 1_555
H28A C18A 1_555 1_555
H29A C18A 1_555 1_555
H30A C18A 1_555 1_555
H31A C19A 1_555 1_555
H32A C19A 1_555 1_555
H33A C19A 1_555 1_555
H34A C20A 1_555 1_555
H35A C20A 1_555 1_555
H36A C20A 1_555 1_555
H10A C8A 1_555 1_555
H11A C8A 1_555 1_555
H12A C8A 1_555 1_555
H13A C9A 1_555 1_555
H14A C9A 1_555 1_555
H15A C9A 1_555 1_555
H16A C10A 1_555 1_555
H17A C10A 1_555 1_555
H18A C10A 1_555 1_555
C1A O3A 1_555 1_555
O1A Mo1A 1_555 1_555
C2A C1A 1_555 1_555
C3A C2A 1_555 1_555
C4A C2A 1_555 1_555
C5A C2A 1_555 1_555
H1A C3A 1_555 1_555
H2A C3A 1_555 1_555
H3A C3A 1_555 1_555
H4A C4A 1_555 1_555
H5A C4A 1_555 1_555
H6A C4A 1_555 1_555
H7A C5A 1_555 1_555
H8A C5A 1_555 1_555
H9A C5A 1_555 1_555
N1A Mo1A 1_555 1_555
N2A Mo2A 1_555 1_555
C26A N2A 1_555 1_555
C30A N2A 1_555 1_555
C27A C26A 1_555 1_555
H41A C26A 1_555 1_555
C29A C30A 1_555 1_555
H44A C30A 1_555 1_555
C28A C27A 1_555 1_555
H42A C27A 1_555 1_555
H43A C29A 1_555 1_555
C23A C28A 1_555 1_555
C22A C23A 1_555 1_555
C24A C23A 1_555 1_555
C21A C22A 1_555 1_555
H38A C22A 1_555 1_555
C25A C24A 1_555 1_555
H39A C24A 1_555 1_555
N1A_2 C21A 1_555 1_555
H37A C21A 1_555 1_555
H40A C25A 1_555 1_555
Mo1A_2 N1A_2 1_555 1_555
O2 Mo1 1_555 1_555
O6 Mo2 1_555 1_555
N1 Mo1 1_555 1_555
N2 Mo2 1_555 1_555
C29 C30 1_555 1_555
Mo1 Mo1A 1_555 1_555
Mo1A O4A 1_555 1_555
C6A O2A 1_555 1_555
O8A Mo2A 1_555 1_555
O7A Mo2A 1_555 1_555
Mo2A O5A 1_555 1_555
Mo2A O6A 1_555 1_555
C1A O1A 1_555 1_555
C29A C28A 1_555 1_555
C25A N1A_2 1_555 1_555

#END
