
#######################################################################
#
#                 Cambridge Crystallographic Data Centre
#                                CCDC 
#
#######################################################################
#
# If this CIF has been generated from an entry in the Cambridge 
# Structural Database, then it will include bibliographic, chemical, 
# crystal, experimental, refinement or atomic coordinate data resulting 
# from the CCDC's data processing and validation procedures.
#
#######################################################################

data_ZIGKOP01
_symmetry_cell_setting           monoclinic
_symmetry_space_group_name_H-M   'P 21/n'
_symmetry_Int_Tables_number      14
_space_group_name_Hall           '-P 2yn'
loop_
_symmetry_equiv_pos_site_id
_symmetry_equiv_pos_as_xyz
1 x,y,z
2 1/2-x,1/2+y,1/2-z
3 -x,-y,-z
4 1/2+x,1/2-y,1/2+z
_cell_length_a                   6.916(1)
_cell_length_b                   13.855(3)
_cell_length_c                   7.981(1)
_cell_angle_alpha                90
_cell_angle_beta                 92.36
_cell_angle_gamma                90
_cell_volume                     764.1
loop_
_atom_site_label
_atom_site_type_symbol
_atom_site_fract_x
_atom_site_fract_y
_atom_site_fract_z
Cd1 Cd 0.2502(1) 0.0293(1) 0.0698(1)
Cl1 Cl 0.4412(1) -0.1248(1) 0.0274(1)
Cl2 Cl 0.0485(1) 0.0644(1) -0.1914(1)
O1 O 0.2153(4) 0.1737(2) 0.2456(4)
O2 O 0.3783(4) 0.0473(2) 0.3426(4)
N1 N 0.5959(5) 0.1525(3) 0.5620(4)
C1 C 0.3264(6) 0.1339(3) 0.3518(5)
C2 C 0.4062(7) 0.1919(3) 0.5003(6)
C3 C 0.7536(7) 0.1624(5) 0.4423(7)
Cd1B Cd 0.7498(1) -0.0293(1) -0.0698(1)
Cl1B Cl 0.5588(1) 0.1248(1) -0.0274(1)
Cl2B Cl -0.0485(1) -0.0644(1) 0.1914(1)
loop_
_geom_bond_atom_site_label_1
_geom_bond_atom_site_label_2
_geom_bond_site_symmetry_1
_geom_bond_site_symmetry_2
Cd1 Cl1 1_555 1_555
Cl1 Cd1B 1_555 1_555
Cl2 Cd1 1_555 1_555
O1 Cd1 1_555 1_555
O2 Cd1 1_555 1_555
N1 C2 1_555 1_555
C1 O1 1_555 1_555
C2 C1 1_555 1_555
C3 N1 1_555 1_555
Cd1B Cl1B 1_555 1_555
Cl1B Cd1 1_555 1_555
Cl2B Cd1 1_555 1_555
O2 C1 1_555 1_555

#END
