
#######################################################################
#
#                 Cambridge Crystallographic Data Centre
#                                CCDC 
#
#######################################################################
#
# If this CIF has been generated from an entry in the Cambridge 
# Structural Database, then it will include bibliographic, chemical, 
# crystal, experimental, refinement or atomic coordinate data resulting 
# from the CCDC's data processing and validation procedures.
#
#######################################################################

data_ZIGTAK
_symmetry_cell_setting           orthorhombic
_symmetry_space_group_name_H-M   'P b c a'
_symmetry_Int_Tables_number      61
_space_group_name_Hall           '-P 2ac 2ab'
loop_
_symmetry_equiv_pos_site_id
_symmetry_equiv_pos_as_xyz
1 x,y,z
2 1/2-x,-y,1/2+z
3 1/2+x,1/2-y,-z
4 -x,1/2+y,1/2-z
5 -x,-y,-z
6 1/2+x,y,1/2-z
7 1/2-x,1/2+y,z
8 x,1/2-y,1/2+z
_cell_length_a                   13.717(5)
_cell_length_b                   19.708(10)
_cell_length_c                   22.294(8)
_cell_angle_alpha                90
_cell_angle_beta                 90
_cell_angle_gamma                90
_cell_volume                     6026.84
loop_
_atom_site_label
_atom_site_type_symbol
_atom_site_fract_x
_atom_site_fract_y
_atom_site_fract_z
Cu1 Cu 0.0356(1) 0.0760(1) 0.0208(1)
O1 O -0.0394(4) 0.0042(2) 0.0595(2)
C1 C -0.1074(3) 0.0136(2) 0.1012(1)
C2 C -0.1118(2) 0.0736(2) 0.1338(1)
C3 C -0.1807(3) 0.0812(2) 0.1790(1)
N1 N -0.2453(3) 0.0287(2) 0.1916(1)
C4 C -0.2410(3) -0.0313(2) 0.1590(1)
C5 C -0.1720(3) -0.0389(1) 0.1138(1)
C6 C -0.3195(7) 0.0379(5) 0.2396(3)
C7 C -0.4073(6) 0.0776(4) 0.2187(3)
C8 C -0.4231(7) 0.1418(4) 0.2417(4)
C9 C -0.4739(8) 0.0505(5) 0.1789(4)
C10 C -0.5059(7) 0.1787(5) 0.2258(4)
C11 C -0.5565(8) 0.0877(5) 0.1625(5)
C12 C -0.5748(7) 0.1510(4) 0.1861(4)
C13 C -0.6652(7) 0.1895(5) 0.1701(4)
C14 C -0.5987(3) 0.3486(2) 0.0867(1)
C15 C -0.6219(3) 0.3048(2) 0.1335(1)
N2 N -0.6470(3) 0.2378(2) 0.1213(1)
C16 C -0.6488(3) 0.2147(2) 0.0625(2)
C17 C -0.6260(6) 0.2583(4) 0.0168(4)
C18 C -0.5998(6) 0.3264(4) 0.0273(3)
O2 O -0.5779(4) 0.3656(2) -0.0173(2)
O3 O 0.1099(4) 0.1427(2) -0.0225(2)
C19 C 0.1209(4) 0.2067(2) -0.0105(2)
C20 C 0.1512(4) 0.2504(2) -0.0558(2)
C21 C 0.1662(4) 0.3187(2) -0.0434(2)
N3 N 0.1508(4) 0.3434(2) 0.0142(2)
C22 C 0.1205(4) 0.2998(2) 0.0595(2)
C23 C 0.1055(4) 0.2314(2) 0.0472(2)
C24 C 0.1664(7) 0.4145(4) 0.0285(6)
C25 C 0.0805(6) 0.4578(4) 0.0122(4)
C26 C -0.0154(6) 0.4385(4) 0.0269(4)
C27 C 0.0925(7) 0.5200(4) -0.0136(4)
O4 O 0.1569(4) 0.0251(3) 0.0442(2)
O5 O 0.2440(5) 0.0124(4) 0.1227(3)
O6 O 0.1329(5) 0.0885(3) 0.1217(3)
N4 N 0.1772(4) 0.0455(3) 0.0954(2)
H1 H -0.0681 0.1091 0.1253
H2 H -0.1837 0.1218 0.2011
H3 H -0.2846 -0.0668 0.1675
H4 H -0.1691 -0.0795 0.0917
H5 H -0.2895 0.0616 0.2736
H6 H -0.3409 -0.0068 0.2537
H7 H -0.3775 0.1608 0.2684
H8 H -0.4636 0.0071 0.1627
H9 H -0.5158 0.2223 0.2418
H10 H -0.6006 0.0691 0.1347
H11 H -0.7162 0.1576 0.1578
H12 H -0.6887 0.2141 0.2055
H13 H -0.5819 0.3938 0.0953
H14 H -0.6207 0.3205 0.1733
H15 H -0.6655 0.1694 0.0541
H16 H -0.6279 0.2422 -0.0229
H17 H 0.1617 0.2336 -0.0947
H18 H 0.1867 0.3482 -0.0740
H19 H 0.1101 0.3165 0.0985
H20 H 0.0850 0.2019 0.0778
H21 H 0.2240 0.4309 0.0069
H22 H 0.1793 0.4190 0.0715
H23 H -0.0266 0.3968 0.0461
H24 H 0.1559 0.5349 -0.0225
C27D C -0.0925(7) 0.4800(4) 0.0136(4)
C25D C -0.0805(6) 0.5422(4) -0.0122(4)
C24D C -0.1664(7) 0.5855(4) -0.0285(6)
N3D N -0.1508(4) 0.6566(2) -0.0142(2)
C21D C -0.1662(4) 0.6813(2) 0.0434(2)
C20D C -0.1512(4) 0.7496(2) 0.0558(2)
C19D C -0.1209(4) 0.7933(2) 0.0105(2)
O3D O -0.1099(4) 0.8573(2) 0.0225(2)
C23D C -0.1055(4) 0.7686(2) -0.0472(2)
C22D C -0.1205(4) 0.7002(2) -0.0595(2)
H19D H -0.1101 0.6835 -0.0985
H20D H -0.0850 0.7981 -0.0778
H17D H -0.1617 0.7664 0.0947
H18D H -0.1867 0.6518 0.0740
H21D H -0.2240 0.5691 -0.0069
H22D H -0.1793 0.5810 -0.0715
C26D C 0.0154(6) 0.5615(4) -0.0269(4)
H23D H 0.0266 0.6032 -0.0461
H24D H -0.1559 0.4651 0.0225
O1D O 0.0394(4) -0.0042(2) -0.0595(2)
C1D C 0.1074(3) -0.0136(2) -0.1012(1)
C2D C 0.1118(2) -0.0736(2) -0.1338(1)
C3D C 0.1807(3) -0.0812(2) -0.1790(1)
N1D N 0.2453(3) -0.0287(2) -0.1916(1)
C4D C 0.2410(3) 0.0313(2) -0.1590(1)
C5D C 0.1720(3) 0.0389(1) -0.1138(1)
C6D C 0.3195(7) -0.0379(5) -0.2396(3)
C7D C 0.4073(6) -0.0776(4) -0.2187(3)
C8D C 0.4231(7) -0.1418(4) -0.2417(4)
C9D C 0.4739(8) -0.0505(5) -0.1789(4)
C10D C 0.5059(7) -0.1787(5) -0.2258(4)
C11D C 0.5565(8) -0.0877(5) -0.1625(5)
C12D C 0.5748(7) -0.1510(4) -0.1861(4)
C13D C 0.6652(7) -0.1895(5) -0.1701(4)
C14D C 0.5987(3) -0.3486(2) -0.0867(1)
C15D C 0.6219(3) -0.3048(2) -0.1335(1)
N2D N 0.6470(3) -0.2378(2) -0.1213(1)
C16D C 0.6488(3) -0.2147(2) -0.0625(2)
C17D C 0.6260(6) -0.2583(4) -0.0168(4)
C18D C 0.5998(6) -0.3264(4) -0.0273(3)
O2D O 0.5779(4) -0.3656(2) 0.0173(2)
H1D H 0.0681 -0.1091 -0.1253
H2D H 0.1837 -0.1218 -0.2011
H3D H 0.2846 0.0668 -0.1675
H4D H 0.1691 0.0795 -0.0917
H5D H 0.2895 -0.0616 -0.2736
H6D H 0.3409 0.0068 -0.2537
H7D H 0.3775 -0.1608 -0.2684
H8D H 0.4636 -0.0071 -0.1627
H9D H 0.5158 -0.2223 -0.2418
H10D H 0.6006 -0.0691 -0.1347
H11D H 0.7162 -0.1576 -0.1578
H12D H 0.6887 -0.2141 -0.2055
H13D H 0.5819 -0.3938 -0.0953
H14D H 0.6207 -0.3205 -0.1733
H15D H 0.6655 -0.1694 -0.0541
H16D H 0.6279 -0.2422 0.0229
Cu1D Cu -0.0356(1) -0.0760(1) -0.0208(1)
O4D O -0.1569(4) -0.0251(3) -0.0442(2)
O5D O -0.2440(5) -0.0124(4) -0.1227(3)
O6D O -0.1329(5) -0.0885(3) -0.1217(3)
N4D N -0.1772(4) -0.0455(3) -0.0954(2)
O2B O -0.0779(4) 0.1344(2) 0.0173(2)
Cu1B Cu -0.4644(1) 0.4240(1) -0.0208(1)
Cu1D_2 Cu -0.0356(1) 0.9240(1) -0.0208(1)
Cu1F Cu 0.4644(1) -0.4240(1) 0.0208(1)
O2F O 0.0779(4) -0.1344(2) -0.0173(2)
O3D_2 O -0.1099(4) -0.1427(2) 0.0225(2)
O7 O -0.1291(6) 0.3331(4) 0.2191(3)
O8 O -0.2114(7) 0.2476(4) 0.1874(4)
O9 O -0.1415(9) 0.3169(6) 0.1277(4)
N5 N -0.1592(7) 0.2976(5) 0.1777(4)
O10 O 0.0567(10) 0.3776(7) 0.1784(6)
O11? O 0.1077(17) 0.3863(11) 0.2290(11)
loop_
_geom_bond_atom_site_label_1
_geom_bond_atom_site_label_2
_geom_bond_site_symmetry_1
_geom_bond_site_symmetry_2
Cu1 O1 1_555 1_555
O1 C1 1_555 1_555
C1 C2 1_555 1_555
C2 C3 1_555 1_555
C3 N1 1_555 1_555
N1 C4 1_555 1_555
C4 C5 1_555 1_555
C5 C1 1_555 1_555
C6 N1 1_555 1_555
C7 C6 1_555 1_555
C8 C7 1_555 1_555
C9 C7 1_555 1_555
C10 C8 1_555 1_555
C11 C9 1_555 1_555
C12 C10 1_555 1_555
C13 C12 1_555 1_555
C14 C15 1_555 1_555
C15 N2 1_555 1_555
N2 C13 1_555 1_555
C16 N2 1_555 1_555
C17 C16 1_555 1_555
C18 C14 1_555 1_555
O2 C18 1_555 1_555
O3 Cu1 1_555 1_555
C19 O3 1_555 1_555
C20 C19 1_555 1_555
C21 C20 1_555 1_555
N3 C21 1_555 1_555
C22 N3 1_555 1_555
C23 C19 1_555 1_555
C24 N3 1_555 1_555
C25 C24 1_555 1_555
C26 C25 1_555 1_555
C27 C25 1_555 1_555
O4 Cu1 1_555 1_555
O5 N4 1_555 1_555
O6 N4 1_555 1_555
N4 O4 1_555 1_555
O7 N5 1_555 1_555
O8 N5 1_555 1_555
O9 N5 1_555 1_555
H1 C2 1_555 1_555
H2 C3 1_555 1_555
H3 C4 1_555 1_555
H4 C5 1_555 1_555
H5 C6 1_555 1_555
H6 C6 1_555 1_555
H7 C8 1_555 1_555
H8 C9 1_555 1_555
H9 C10 1_555 1_555
H10 C11 1_555 1_555
H11 C13 1_555 1_555
H12 C13 1_555 1_555
H13 C14 1_555 1_555
H14 C15 1_555 1_555
H15 C16 1_555 1_555
H16 C17 1_555 1_555
H17 C20 1_555 1_555
H18 C21 1_555 1_555
H19 C22 1_555 1_555
H20 C23 1_555 1_555
H21 C24 1_555 1_555
H22 C24 1_555 1_555
H23 C26 1_555 1_555
H24 C27 1_555 1_555
C27D C26 1_555 1_555
C25D C27D 1_555 1_555
C24D C25D 1_555 1_555
N3D C24D 1_555 1_555
C21D N3D 1_555 1_555
C20D C21D 1_555 1_555
C19D C20D 1_555 1_555
O3D C19D 1_555 1_555
C23D C19D 1_555 1_555
C22D N3D 1_555 1_555
H19D C22D 1_555 1_555
H20D C23D 1_555 1_555
H17D C20D 1_555 1_555
H18D C21D 1_555 1_555
H21D C24D 1_555 1_555
H22D C24D 1_555 1_555
C26D C27 1_555 1_555
H23D C26D 1_555 1_555
H24D C27D 1_555 1_555
O1D Cu1 1_555 1_555
C1D O1D 1_555 1_555
C2D C1D 1_555 1_555
C3D C2D 1_555 1_555
N1D C3D 1_555 1_555
C4D N1D 1_555 1_555
C5D C1D 1_555 1_555
C6D N1D 1_555 1_555
C7D C6D 1_555 1_555
C8D C7D 1_555 1_555
C9D C7D 1_555 1_555
C10D C8D 1_555 1_555
C11D C9D 1_555 1_555
C12D C10D 1_555 1_555
C13D C12D 1_555 1_555
C14D C15D 1_555 1_555
C15D N2D 1_555 1_555
N2D C13D 1_555 1_555
C16D N2D 1_555 1_555
C17D C16D 1_555 1_555
C18D C14D 1_555 1_555
O2D C18D 1_555 1_555
H1D C2D 1_555 1_555
H2D C3D 1_555 1_555
H3D C4D 1_555 1_555
H4D C5D 1_555 1_555
H5D C6D 1_555 1_555
H6D C6D 1_555 1_555
H7D C8D 1_555 1_555
H8D C9D 1_555 1_555
H9D C10D 1_555 1_555
H10D C11D 1_555 1_555
H11D C13D 1_555 1_555
H12D C13D 1_555 1_555
H13D C14D 1_555 1_555
H14D C15D 1_555 1_555
H15D C16D 1_555 1_555
H16D C17D 1_555 1_555
Cu1D O1 1_555 1_555
O4D Cu1D 1_555 1_555
O5D N4D 1_555 1_555
O6D N4D 1_555 1_555
N4D O4D 1_555 1_555
O2B Cu1 1_555 1_555
Cu1B O2 1_555 1_555
Cu1D_2 O3D 1_555 1_555
Cu1F O2D 1_555 1_555
O2F Cu1D 1_555 1_555
O3D_2 Cu1D 1_555 1_555
C11 C12 1_555 1_555
C17 C18 1_555 1_555
C22 C23 1_555 1_555
C25D C26D 1_555 1_555
C23D C22D 1_555 1_555
O1D Cu1D 1_555 1_555
C4D C5D 1_555 1_555
C11D C12D 1_555 1_555
C17D C18D 1_555 1_555

#END
