
#######################################################################
#
#                 Cambridge Crystallographic Data Centre
#                                CCDC 
#
#######################################################################
#
# If this CIF has been generated from an entry in the Cambridge 
# Structural Database, then it will include bibliographic, chemical, 
# crystal, experimental, refinement or atomic coordinate data resulting 
# from the CCDC's data processing and validation procedures.
#
#######################################################################

data_ZIGXAQ01
_symmetry_cell_setting           monoclinic
_symmetry_space_group_name_H-M   'C 2/c'
_symmetry_Int_Tables_number      15
_space_group_name_Hall           '-C 2yn'
loop_
_symmetry_equiv_pos_site_id
_symmetry_equiv_pos_as_xyz
1 x,y,z
2 -x,y,1/2-z
3 1/2+x,1/2+y,z
4 1/2-x,1/2+y,1/2-z
5 -x,-y,-z
6 x,-y,1/2+z
7 1/2-x,1/2-y,-z
8 1/2+x,1/2-y,1/2+z
_cell_length_a                   11.8527(6)
_cell_length_b                   18.2900(7)
_cell_length_c                   11.4991(6)
_cell_angle_alpha                90
_cell_angle_beta                 99.020(5)
_cell_angle_gamma                90
_cell_volume                     2462.02
loop_
_atom_site_label
_atom_site_type_symbol
_atom_site_fract_x
_atom_site_fract_y
_atom_site_fract_z
Mn1 Mn 0.0000 0.26951(5) 0.2500
Mn2 Mn 0.2500 0.2500 0.5000
O1 O 0.1284(3) 0.35047(17) 0.2273(3)
O2 O 0.2804(3) 0.31270(16) 0.3539(3)
O3 O 0.2733(3) 0.64929(16) 0.1010(3)
O4 O 0.3860(3) 0.68260(16) 0.2680(3)
O5 O 0.0604(3) 0.27544(18) 0.4498(3)
C1 C 0.2772(4) 0.4337(2) 0.2878(4)
C2 C 0.3600(5) 0.4609(3) 0.3713(5)
H1 H 0.3956 0.4345 0.4359
C3 C 0.3855(5) 0.5343(3) 0.3478(5)
H2 H 0.4399 0.5617 0.3963
C4 C 0.3241(4) 0.5610(2) 0.2494(4)
C5 C 0.2249(4) 0.3594(2) 0.2891(4)
C6 C 0.3279(4) 0.6364(2) 0.2006(4)
C7 C 0.0010(5) 0.3123(3) 0.5096(6)
C8 C 0.0058(6) 0.3950(3) 0.5157(6)
H3 H 0.0381 0.4136 0.4501
H4 H 0.0523 0.4098 0.5878
H5 H -0.0700 0.4141 0.5130
C9 C -0.1409(7) 0.3181(6) 0.6476(8)
H6 H -0.1299 0.3700 0.6421
H7 H -0.1227 0.3032 0.7283
H8 H -0.2192 0.3063 0.6183
C10 C -0.0679(6) 0.1986(4) 0.5719(7)
H9 H -0.0154 0.1810 0.5227
H10 H -0.1438 0.1828 0.5405
H11 H -0.0469 0.1796 0.6501
S1 S 0.23210(12) 0.49671(6) 0.18136(12)
N1 N -0.0643(5) 0.2790(4) 0.5755(5)
O1A O -0.1284(3) 0.35047(17) 0.2727(3)
O2A O -0.2804(3) 0.31270(16) 0.1461(3)
O3A O -0.2733(3) 0.64929(16) 0.3990(3)
O4A O -0.3860(3) 0.68260(16) 0.2320(3)
O5A O -0.0604(3) 0.27544(18) 0.0502(3)
C1A C -0.2772(4) 0.4337(2) 0.2122(4)
C2A C -0.3600(5) 0.4609(3) 0.1287(5)
H1A H -0.3956 0.4345 0.0641
C3A C -0.3855(5) 0.5343(3) 0.1522(5)
H2A H -0.4399 0.5617 0.1037
C4A C -0.3241(4) 0.5610(2) 0.2506(4)
C5A C -0.2249(4) 0.3594(2) 0.2109(4)
C6A C -0.3279(4) 0.6364(2) 0.2994(4)
C7A C -0.0010(5) 0.3123(3) -0.0096(6)
C8A C -0.0058(6) 0.3950(3) -0.0157(6)
H3A H -0.0381 0.4136 0.0499
H4A H -0.0523 0.4098 -0.0878
H5A H 0.0700 0.4141 -0.0130
C9A C 0.1409(7) 0.3181(6) -0.1476(8)
H6A H 0.1299 0.3700 -0.1421
H7A H 0.1227 0.3032 -0.2283
H8A H 0.2192 0.3063 -0.1183
C10A C 0.0679(6) 0.1986(4) -0.0719(7)
H9A H 0.0154 0.1810 -0.0227
H10A H 0.1438 0.1828 -0.0405
H11A H 0.0469 0.1796 -0.1501
S1A S -0.23210(12) 0.49671(6) 0.31864(12)
N1A N 0.0643(5) 0.2790(4) -0.0755(5)
Mn1B Mn -0.5000 0.76951(5) 0.2500
Mn1B_2 Mn 0.5000 0.76951(5) 0.2500
Mn2A Mn -0.2500 0.2500 0.0000
Mn2B Mn -0.2500 0.7500 0.5000
Mn2C Mn 0.2500 0.7500 0.0000
O2F O 0.2196(3) 0.18730(16) 0.6461(3)
O3C O 0.2267(3) 0.14929(16) 0.3990(3)
O3E O 0.2733(3) 0.35071(16) 0.6010(3)
O4B O -0.1140(3) 0.18260(16) 0.2680(3)
O4C O 0.1140(3) 0.18260(16) 0.2320(3)
O5F O 0.4396(3) 0.22456(18) 0.5502(3)
loop_
_geom_bond_atom_site_label_1
_geom_bond_atom_site_label_2
_geom_bond_site_symmetry_1
_geom_bond_site_symmetry_2
Mn1 O1 1_555 1_555
Mn2 O2 1_555 1_555
O1 C5 1_555 1_555
O2 C5 1_555 1_555
O3 C6 1_555 1_555
O4 C6 1_555 1_555
O5 Mn1 1_555 1_555
C1 C2 1_555 1_555
C2 H1 1_555 1_555
C3 C2 1_555 1_555
H2 C3 1_555 1_555
C4 C3 1_555 1_555
C5 C1 1_555 1_555
C6 C4 1_555 1_555
C7 O5 1_555 1_555
C8 C7 1_555 1_555
H3 C8 1_555 1_555
H4 C8 1_555 1_555
H5 C8 1_555 1_555
C9 H6 1_555 1_555
H7 C9 1_555 1_555
H8 C9 1_555 1_555
C10 H9 1_555 1_555
H10 C10 1_555 1_555
H11 C10 1_555 1_555
S1 C1 1_555 1_555
N1 C7 1_555 1_555
O1A Mn1 1_555 1_555
O2A C5A 1_555 1_555
O3A C6A 1_555 1_555
O4A C6A 1_555 1_555
O5A Mn1 1_555 1_555
C1A C2A 1_555 1_555
C2A H1A 1_555 1_555
C3A C2A 1_555 1_555
H2A C3A 1_555 1_555
C4A C3A 1_555 1_555
C5A O1A 1_555 1_555
C6A C4A 1_555 1_555
C7A O5A 1_555 1_555
C8A C7A 1_555 1_555
H3A C8A 1_555 1_555
H4A C8A 1_555 1_555
H5A C8A 1_555 1_555
C9A H6A 1_555 1_555
H7A C9A 1_555 1_555
H8A C9A 1_555 1_555
C10A H9A 1_555 1_555
H10A C10A 1_555 1_555
H11A C10A 1_555 1_555
S1A C1A 1_555 1_555
N1A C7A 1_555 1_555
Mn1B O4A 1_555 1_555
Mn1B_2 O4 1_555 1_555
Mn2A O2A 1_555 1_555
Mn2B O3A 1_555 1_555
Mn2C O3 1_555 1_555
O2F Mn2 1_555 1_555
O3C Mn2 1_555 1_555
O3E Mn2 1_555 1_555
O4B Mn1 1_555 1_555
O4C Mn1 1_555 1_555
O5F Mn2 1_555 1_555
Mn2 O5 1_555 1_555
C4 S1 1_555 1_555
C9 N1 1_555 1_555
C10 N1 1_555 1_555
O5A Mn2A 1_555 1_555
C1A C5A 1_555 1_555
C4A S1A 1_555 1_555
C9A N1A 1_555 1_555
C10A N1A 1_555 1_555

#END
