
#######################################################################
#
#                 Cambridge Crystallographic Data Centre
#                                CCDC 
#
#######################################################################
#
# If this CIF has been generated from an entry in the Cambridge 
# Structural Database, then it will include bibliographic, chemical, 
# crystal, experimental, refinement or atomic coordinate data resulting 
# from the CCDC's data processing and validation procedures.
#
#######################################################################

data_ZIHFUR01
_symmetry_cell_setting           tetragonal
_symmetry_space_group_name_H-M   'I -4 2 d'
_symmetry_Int_Tables_number      122
_space_group_name_Hall           'I -4 2bw'
loop_
_symmetry_equiv_pos_site_id
_symmetry_equiv_pos_as_xyz
1 x,y,z
2 y,-x,-z
3 x,1/2-y,1/4-z
4 -x,-y,z
5 1/2-y,-x,3/4+z
6 -y,x,-z
7 -x,1/2+y,1/4-z
8 1/2+y,x,3/4+z
9 1/2+x,1/2+y,1/2+z
10 1/2+y,1/2-x,1/2-z
11 1/2+x,-y,3/4-z
12 1/2-x,1/2-y,1/2+z
13 -y,1/2-x,1/4+z
14 1/2-y,1/2+x,1/2-z
15 1/2-x,y,3/4-z
16 y,1/2+x,1/4+z
_cell_length_a                   24.272(3)
_cell_length_b                   24.272(3)
_cell_length_c                   4.937(1)
_cell_angle_alpha                90
_cell_angle_beta                 90
_cell_angle_gamma                90
_cell_volume                     2908.53
loop_
_atom_site_label
_atom_site_type_symbol
_atom_site_fract_x
_atom_site_fract_y
_atom_site_fract_z
Ag1 Ag 1.0000 0.5000 0.2500
N1 N 0.9297(14) 0.4710(15) 0.5178(79)
C1 C 0.8553(16) 0.4653(18) 0.8819(89)
C2 C 0.8356(22) 0.5133(21) 0.976(14)
C3 C 0.7923(22) 0.5134(21) 1.170(11)
C4 C 0.7718(16) 0.4645(16) 1.2732(82)
C5 C 0.7959(21) 0.4147(22) 1.166(13)
C6 C 0.8347(23) 0.4157(23) 0.985(12)
C7 C 0.8966(17) 0.4682(17) 0.6767(89)
H1 H 0.8502(22) 0.5465(21) 0.915(14)
H2 H 0.7775(22) 0.5467(21) 1.228(11)
H3 H 0.7831(21) 0.3808(22) 1.228(13)
H4 H 0.8492(23) 0.3825(23) 0.922(12)
C4N C 0.7282(16) 0.4645(16) 1.4768(82)
C3N C 0.7077(22) 0.5134(21) 1.580(11)
C2N C 0.6644(22) 0.5133(21) 1.774(14)
C1N C 0.6447(16) 0.4653(18) 1.8681(89)
C6N C 0.6653(23) 0.4157(23) 1.765(12)
C5N C 0.7041(21) 0.4147(22) 1.584(13)
H3N H 0.7169(21) 0.3808(22) 1.522(13)
H4N H 0.6508(23) 0.3825(23) 1.828(12)
C7N C 0.6034(17) 0.4682(17) 2.0733(89)
N1N N 0.5703(14) 0.4710(15) 2.2322(79)
Ag1N Ag 0.5000 0.5000 2.5000
Ag1G Ag 1.0000 0.0000 -2.0000
N1D N 1.0290(15) 0.0703(14) -1.7322(79)
C7D C 1.0318(17) 0.1034(17) -1.5733(89)
C1D C 1.0347(18) 0.1447(16) -1.3681(89)
C2D C 0.9867(21) 0.1644(22) -1.274(14)
C3D C 0.9866(21) 0.2077(22) -1.080(11)
C4D C 1.0355(16) 0.2282(16) -0.9768(82)
C4M C 1.0355(16) 0.2718(16) -0.7732(82)
C3M C 0.9866(21) 0.2923(22) -0.670(11)
C2M C 0.9867(21) 0.3356(22) -0.476(14)
C1M C 1.0347(18) 0.3553(16) -0.3819(89)
C6M C 1.0843(23) 0.3347(23) -0.485(12)
C5M C 1.0853(22) 0.2959(21) -0.666(13)
H3M H 1.1192(22) 0.2831(21) -0.728(13)
H4M H 1.1175(23) 0.3492(23) -0.422(12)
C7M C 1.0318(17) 0.3966(17) -0.1767(89)
N1M N 1.0290(15) 0.4297(14) -0.0178(79)
N1C N 1.0703(14) 0.5290(15) 0.5178(79)
N1I N 0.9710(15) 0.5703(14) -0.0178(79)
H1M H 0.9535(21) 0.3502(22) -0.415(14)
H2M H 0.9533(21) 0.2775(22) -0.728(11)
C5D C 1.0853(22) 0.2041(21) -1.084(13)
C6D C 1.0843(23) 0.1653(23) -1.265(12)
H4D H 1.1175(23) 0.1508(23) -1.328(12)
H3D H 1.1192(22) 0.2169(21) -1.022(13)
H2D H 0.9533(21) 0.2225(22) -1.022(11)
H1D H 0.9535(21) 0.1498(22) -1.335(14)
H1N H 0.6498(22) 0.5465(21) 1.835(14)
H2N H 0.7225(22) 0.5467(21) 1.522(11)
P1 P 0.7500 0.6715(14) 0.8750
F1 F 0.7927(24) 0.7121(17) 0.884(29)
F2 F 0.7081(17) 0.6277(23) 0.874(28)
F3 F 0.7550(77) 0.6648(28) 0.5833(63)
F1N F 0.7073(24) 0.7121(17) 0.866(29)
F2N F 0.7919(17) 0.6277(23) 0.876(28)
F3N F 0.7450(77) 0.6648(28) 1.1667(63)
loop_
_geom_bond_atom_site_label_1
_geom_bond_atom_site_label_2
_geom_bond_site_symmetry_1
_geom_bond_site_symmetry_2
Ag1 N1 1_555 1_555
P1 F1 1_555 1_555
F2 P1 1_555 1_555
F3 P1 1_555 1_555
N1 C7 1_555 1_555
C1 C2 1_555 1_555
C2 C3 1_555 1_555
C3 C4 1_555 1_555
C4 C5 1_555 1_555
C5 C6 1_555 1_555
C6 C1 1_555 1_555
C7 C1 1_555 1_555
H1 C2 1_555 1_555
H2 C3 1_555 1_555
H3 C5 1_555 1_555
H4 C6 1_555 1_555
C4N C4 1_555 1_555
C3N C4N 1_555 1_555
C2N C3N 1_555 1_555
C1N C2N 1_555 1_555
C6N C1N 1_555 1_555
C5N C4N 1_555 1_555
H3N C5N 1_555 1_555
H4N C6N 1_555 1_555
C7N C1N 1_555 1_555
N1N C7N 1_555 1_555
Ag1N N1N 1_555 1_555
Ag1G N1D 1_555 1_555
N1D C7D 1_555 1_555
C7D C1D 1_555 1_555
C1D C2D 1_555 1_555
C2D C3D 1_555 1_555
C3D C4D 1_555 1_555
C4D C4M 1_555 1_555
C4M C3M 1_555 1_555
C3M C2M 1_555 1_555
C2M C1M 1_555 1_555
C1M C6M 1_555 1_555
C6M C5M 1_555 1_555
C5M C4M 1_555 1_555
H3M C5M 1_555 1_555
H4M C6M 1_555 1_555
C7M C1M 1_555 1_555
N1M Ag1 1_555 1_555
N1C Ag1 1_555 1_555
N1I Ag1 1_555 1_555
H1M C2M 1_555 1_555
H2M C3M 1_555 1_555
C5D C4D 1_555 1_555
C6D C1D 1_555 1_555
H4D C6D 1_555 1_555
H3D C5D 1_555 1_555
H2D C3D 1_555 1_555
H1D C2D 1_555 1_555
H1N C2N 1_555 1_555
H2N C3N 1_555 1_555
F1N P1 1_555 1_555
F2N P1 1_555 1_555
F3N P1 1_555 1_555
C6N C5N 1_555 1_555
C7M N1M 1_555 1_555
C5D C6D 1_555 1_555

#END
