
#######################################################################
#
#                 Cambridge Crystallographic Data Centre
#                                CCDC 
#
#######################################################################
#
# If this CIF has been generated from an entry in the Cambridge 
# Structural Database, then it will include bibliographic, chemical, 
# crystal, experimental, refinement or atomic coordinate data resulting 
# from the CCDC's data processing and validation procedures.
#
#######################################################################

data_ZIJRER
_symmetry_cell_setting           orthorhombic
_symmetry_space_group_name_H-M   'P 21 21 21'
_symmetry_Int_Tables_number      19
_space_group_name_Hall           'P 2ac 2ab'
loop_
_symmetry_equiv_pos_site_id
_symmetry_equiv_pos_as_xyz
1 x,y,z
2 1/2-x,-y,1/2+z
3 -x,1/2+y,1/2-z
4 1/2+x,1/2-y,-z
_cell_length_a                   8.4810(6)
_cell_length_b                   13.4884(9)
_cell_length_c                   14.3386(11)
_cell_angle_alpha                90
_cell_angle_beta                 90
_cell_angle_gamma                90
_cell_volume                     1640.27
loop_
_atom_site_label
_atom_site_type_symbol
_atom_site_fract_x
_atom_site_fract_y
_atom_site_fract_z
Se1 Se 0.94290(6) 0.61002(3) 0.23904(4)
N1 N 1.0898(5) 0.5152(3) 0.2500(3)
N2 N 1.0820(5) 0.7072(3) 0.2614(3)
Fe1 Fe 1.00885(8) 0.36063(5) 0.23780(5)
Cl1 Cl 1.19594(15) 0.30278(9) 0.35831(8)
Cl2 Cl 0.83167(15) 0.41705(9) 0.11318(9)
S1 S 0.80215(15) 0.33040(9) 0.42078(9)
S2 S 1.19977(16) 0.35466(10) 0.03881(9)
O1 O 0.8384(4) 0.3961(3) 0.3366(2)
O2 O 1.1890(5) 0.3287(3) 0.1427(3)
C1 C 1.2246(6) 0.6662(3) 0.2708(3)
C2 C 1.2303(6) 0.5593(3) 0.2632(4)
C3 C 1.3765(6) 0.5083(4) 0.2683(4)
H1 H 1.3807 0.4395 0.2650
C4 C 1.3686(6) 0.7202(4) 0.2818(4)
H2 H 1.3680 0.7889 0.2862
C5 C 0.6062(6) 0.3638(4) 0.4513(4)
H3 H 0.5987 0.4346 0.4566
H4 H 0.5790 0.3338 0.5098
H5 H 0.5349 0.3410 0.4039
C6 C 1.5098(6) 0.5629(4) 0.2782(4)
H6 H 1.6065 0.5305 0.2803
C7 C 1.5066(6) 0.6688(4) 0.2855(3)
H7 H 1.6008 0.7031 0.2930
C8 C 1.3982(7) 0.3226(5) 0.0105(4)
H8 H 1.4687 0.3543 0.0535
H9 H 1.4217 0.3442 -0.0518
H10 H 1.4109 0.2520 0.0145
C9 C 0.9018(6) 0.3855(4) 0.5169(4)
H11 H 1.0134 0.3766 0.5097
H12 H 0.8677 0.3546 0.5737
H13 H 0.8780 0.4551 0.5190
C10 C 1.2181(7) 0.4862(4) 0.0336(4)
H14 H 1.1207 0.5162 0.0527
H15 H 1.2420 0.5059 -0.0292
H16 H 1.3013 0.5073 0.0743
N2B N 0.9180(5) 0.2072(3) 0.2386(3)
Fe1B Fe 0.99115(8) 0.86063(5) 0.26220(5)
loop_
_geom_bond_atom_site_label_1
_geom_bond_atom_site_label_2
_geom_bond_site_symmetry_1
_geom_bond_site_symmetry_2
Se1 N1 1_555 1_555
N1 Fe1 1_555 1_555
N2 Se1 1_555 1_555
Fe1 Cl1 1_555 1_555
Cl2 Fe1 1_555 1_555
S1 O1 1_555 1_555
S2 O2 1_555 1_555
O1 Fe1 1_555 1_555
O2 Fe1 1_555 1_555
C1 N2 1_555 1_555
C2 N1 1_555 1_555
C3 C2 1_555 1_555
H1 C3 1_555 1_555
C4 C1 1_555 1_555
H2 C4 1_555 1_555
C5 S1 1_555 1_555
H3 C5 1_555 1_555
H4 C5 1_555 1_555
H5 C5 1_555 1_555
C6 C3 1_555 1_555
H6 C6 1_555 1_555
C7 C4 1_555 1_555
H7 C7 1_555 1_555
C8 S2 1_555 1_555
H8 C8 1_555 1_555
H9 C8 1_555 1_555
H10 C8 1_555 1_555
C9 S1 1_555 1_555
H11 C9 1_555 1_555
H12 C9 1_555 1_555
H13 C9 1_555 1_555
C10 S2 1_555 1_555
H14 C10 1_555 1_555
H15 C10 1_555 1_555
H16 C10 1_555 1_555
N2B Fe1 1_555 1_555
Fe1B N2 1_555 1_555
C1 C2 1_555 1_555
C6 C7 1_555 1_555

#END
