
#######################################################################
#
#                 Cambridge Crystallographic Data Centre
#                                CCDC 
#
#######################################################################
#
# If this CIF has been generated from an entry in the Cambridge 
# Structural Database, then it will include bibliographic, chemical, 
# crystal, experimental, refinement or atomic coordinate data resulting 
# from the CCDC's data processing and validation procedures.
#
#######################################################################

data_ZIKCAZ
_symmetry_cell_setting           monoclinic
_symmetry_space_group_name_H-M   'C 2/c'
_symmetry_Int_Tables_number      15
_space_group_name_Hall           '-C 2yn'
loop_
_symmetry_equiv_pos_site_id
_symmetry_equiv_pos_as_xyz
1 x,y,z
2 -x,y,1/2-z
3 1/2+x,1/2+y,z
4 1/2-x,1/2+y,1/2-z
5 -x,-y,-z
6 x,-y,1/2+z
7 1/2-x,1/2-y,-z
8 1/2+x,1/2-y,1/2+z
_cell_length_a                   24.1977(17)
_cell_length_b                   13.9528(10)
_cell_length_c                   25.1006(18)
_cell_angle_alpha                90
_cell_angle_beta                 96.677(2)
_cell_angle_gamma                90
_cell_volume                     8417.13
loop_
_atom_site_label
_atom_site_type_symbol
_atom_site_fract_x
_atom_site_fract_y
_atom_site_fract_z
Cd1 Cd 0.0000 0.26758(6) 0.2500
Cd2 Cd 0.229958(19) 0.23640(4) 0.921029(18)
O1 O 0.2282(2) 0.2322(5) 0.8282(2)
O2 O -0.1771(2) 0.2690(5) 0.4275(2)
O3 O -0.0060(2) 0.2641(6) 0.3390(2)
N1 N 0.2286(3) 0.4016(5) 0.9251(3)
O4 O 0.1191(3) 0.2420(8) 0.5618(2)
O5 O 0.1453(2) 0.2355(5) 0.8550(2)
O6 O -0.1727(2) 0.2392(5) 0.5137(2)
N2 N 0.2257(3) 1.0717(5) 0.9285(3)
C1 C 0.1512(4) 0.2375(10) 0.7605(3)
C2 C 0.0946(4) 0.2415(10) 0.7468(3)
H1 H 0.0712 0.2449 0.7736
C3 C 0.0720(4) 0.2403(10) 0.6934(3)
H2 H 0.0336 0.2392 0.6847
C4 C 0.1064(4) 0.2407(10) 0.6530(3)
C5 C 0.1627(4) 0.2388(10) 0.6677(3)
H3 H 0.1865 0.2387 0.6412
C6 C 0.1851(3) 0.2370(8) 0.7208(3)
H4 H 0.2235 0.2355 0.7295
C7 C 0.0015(3) 0.2495(7) 0.5282(3)
C8 C -0.0562(3) 0.2497(6) 0.5250(3)
H5 H -0.0734 0.2468 0.5562
C9 C -0.0882(3) 0.2543(5) 0.4758(3)
C10 C -0.0624(3) 0.2594(5) 0.4292(3)
H6 H -0.0839 0.2627 0.3960
C11 C -0.0049(3) 0.2594(5) 0.4321(3)
C12 C 0.0272(3) 0.2535(6) 0.4816(3)
H7 H 0.0658 0.2523 0.4835
C13 C 0.1761(3) 0.2350(6) 0.8181(3)
C14 C -0.1507(3) 0.2541(5) 0.4725(3)
C15 C 0.0233(3) 0.2643(6) 0.3823(3)
C16 C 0.0859(3) 0.2446(8) 0.5943(3)
C17 C 0.2694(4) 1.0185(7) 0.9280(4)
H8 H 0.3039 1.0474 0.9271
C18 C 0.2660(5) 0.9169(8) 0.9289(5)
H9 H 0.2982 0.8808 0.9284
C19 C 0.2170(5) 0.8720(8) 0.9305(4)
C20 C 0.1715(6) 0.9286(8) 0.9327(5)
H10 H 0.1368 0.9015 0.9354
C21 C 0.1775(5) 1.0253(7) 0.9310(5)
H11 H 0.1456 1.0623 0.9317
C22 C 0.2021(7) 0.7700(13) 0.9279(7)
H12 H 0.1649 0.7517 0.9228
C23 C 0.2432(7) 0.7017(12) 0.9331(6)
H13 H 0.2801 0.7213 0.9387
C24 C 0.1816(5) 0.4492(7) 0.9283(4)
H14 H 0.1484 0.4160 0.9291
C25 C 0.1821(7) 0.5507(9) 0.9303(4)
H15 H 0.1490 0.5837 0.9319
C26 C 0.2310(8) 0.6014(8) 0.9300(4)
C27 C 0.2790(7) 0.5484(8) 0.9257(5)
H16 H 0.3128 0.5793 0.9239
C28 C 0.2760(5) 0.4504(7) 0.9242(4)
H17 H 0.3087 0.4160 0.9225
N3 N 0.0309(3) 0.2468(8) 0.5804(3)
H18 H 0.0108 0.2466 0.6065
C29 C 0.2271(7) 0.0061(16) 0.2668(9)
H19 H 0.2282 -0.0426 0.2922
C30 C 0.2718(6) 0.0206(15) 0.2427(10)
H20 H 0.2699 0.0603 0.2128
C31 C 0.4227(4) -0.0573(9) 0.2997(4)
H21 H 0.4512 -0.0532 0.3278
C32 C 0.3702(4) -0.0215(10) 0.3058(4)
H22 H 0.3635 0.0065 0.3381
C33 C 0.3276(3) -0.0277(10) 0.2637(5)
C34 C 0.3375(4) -0.0696(11) 0.2155(4)
H23 H 0.3090 -0.0737 0.1874
C35 C 0.3900(5) -0.1054(10) 0.2094(3)
H24 H 0.3966 -0.1334 0.1771
N4 N 0.4326(3) -0.0992(9) 0.2515(4)
N5 N 0.0777(4) 0.1712(8) 0.2531(5)
C36 C 0.1197(4) 0.1996(7) 0.2231(4)
H25 H 0.1154 0.2546 0.2022
C37 C 0.1681(4) 0.1456(8) 0.2245(5)
H26 H 0.1962 0.1646 0.2044
C38 C 0.1746(4) 0.0633(8) 0.2557(5)
C39 C 0.1326(5) 0.0349(7) 0.2857(5)
H27 H 0.1369 -0.0201 0.3067
C40 C 0.0841(4) 0.0889(8) 0.2844(5)
H28 H 0.0561 0.0699 0.3044
O7 O 0.0708(5) 0.3040(10) 0.3874(5)
Cd2A Cd -0.229958(19) 0.23640(4) -0.421029(18)
O1A O -0.2282(2) 0.2322(5) -0.3282(2)
O2A O 0.1771(2) 0.2690(5) 0.0725(2)
O3A O 0.0060(2) 0.2641(6) 0.1610(2)
N1A N -0.2286(3) 0.4016(5) -0.4251(3)
O4A O -0.1191(3) 0.2420(8) -0.0618(2)
O5A O -0.1453(2) 0.2355(5) -0.3550(2)
O6A O 0.1727(2) 0.2392(5) -0.0137(2)
N2A N -0.2257(3) 1.0717(5) -0.4285(3)
C1A C -0.1512(4) 0.2375(10) -0.2605(3)
C2A C -0.0946(4) 0.2415(10) -0.2468(3)
H1A H -0.0712 0.2449 -0.2736
C3A C -0.0720(4) 0.2403(10) -0.1934(3)
H2A H -0.0336 0.2392 -0.1847
C4A C -0.1064(4) 0.2407(10) -0.1530(3)
C5A C -0.1627(4) 0.2388(10) -0.1677(3)
H3A H -0.1865 0.2387 -0.1412
C6A C -0.1851(3) 0.2370(8) -0.2208(3)
H4A H -0.2235 0.2355 -0.2295
C7A C -0.0015(3) 0.2495(7) -0.0282(3)
C8A C 0.0562(3) 0.2497(6) -0.0250(3)
H5A H 0.0734 0.2468 -0.0562
C9A C 0.0882(3) 0.2543(5) 0.0242(3)
C10A C 0.0624(3) 0.2594(5) 0.0708(3)
H6A H 0.0839 0.2627 0.1040
C11A C 0.0049(3) 0.2594(5) 0.0679(3)
C12A C -0.0272(3) 0.2535(6) 0.0184(3)
H7A H -0.0658 0.2523 0.0165
C13A C -0.1761(3) 0.2350(6) -0.3181(3)
C14A C 0.1507(3) 0.2541(5) 0.0275(3)
C15A C -0.0233(3) 0.2643(6) 0.1177(3)
C16A C -0.0859(3) 0.2446(8) -0.0943(3)
C17A C -0.2694(4) 1.0185(7) -0.4280(4)
H8A H -0.3039 1.0474 -0.4271
C18A C -0.2660(5) 0.9169(8) -0.4289(5)
H9A H -0.2982 0.8808 -0.4284
C19A C -0.2170(5) 0.8720(8) -0.4305(4)
C20A C -0.1715(6) 0.9286(8) -0.4327(5)
H10A H -0.1368 0.9015 -0.4354
C21A C -0.1775(5) 1.0253(7) -0.4310(5)
H11A H -0.1456 1.0623 -0.4317
C22A C -0.2021(7) 0.7700(13) -0.4279(7)
H12A H -0.1649 0.7517 -0.4228
C23A C -0.2432(7) 0.7017(12) -0.4331(6)
H13A H -0.2801 0.7213 -0.4387
C24A C -0.1816(5) 0.4492(7) -0.4283(4)
H14A H -0.1484 0.4160 -0.4291
C25A C -0.1821(7) 0.5507(9) -0.4303(4)
H15A H -0.1490 0.5837 -0.4319
C26A C -0.2310(8) 0.6014(8) -0.4300(4)
C27A C -0.2790(7) 0.5484(8) -0.4257(5)
H16A H -0.3128 0.5793 -0.4239
C28A C -0.2760(5) 0.4504(7) -0.4242(4)
H17A H -0.3087 0.4160 -0.4225
N3A N -0.0309(3) 0.2468(8) -0.0804(3)
H18A H -0.0108 0.2466 -0.1065
C29A C -0.2271(7) 0.0061(16) 0.2332(9)
H19A H -0.2282 -0.0426 0.2078
C30A C -0.2718(6) 0.0206(15) 0.2573(10)
H20A H -0.2699 0.0603 0.2872
C31A C -0.4227(4) -0.0573(9) 0.2003(4)
H21A H -0.4512 -0.0532 0.1722
C32A C -0.3702(4) -0.0215(10) 0.1942(4)
H22A H -0.3635 0.0065 0.1619
C33A C -0.3276(3) -0.0277(10) 0.2363(5)
C34A C -0.3375(4) -0.0696(11) 0.2845(4)
H23A H -0.3090 -0.0737 0.3126
C35A C -0.3900(5) -0.1054(10) 0.2906(3)
H24A H -0.3966 -0.1334 0.3229
N4A N -0.4326(3) -0.0992(9) 0.2485(4)
N5A N -0.0777(4) 0.1712(8) 0.2469(5)
C36A C -0.1197(4) 0.1996(7) 0.2769(4)
H25A H -0.1154 0.2546 0.2978
C37A C -0.1681(4) 0.1456(8) 0.2755(5)
H26A H -0.1962 0.1646 0.2956
C38A C -0.1746(4) 0.0633(8) 0.2443(5)
C39A C -0.1326(5) 0.0349(7) 0.2143(5)
H27A H -0.1369 -0.0201 0.1933
C40A C -0.0841(4) 0.0889(8) 0.2156(5)
H28A H -0.0561 0.0699 0.1956
O7A O -0.0708(5) 0.3040(10) 0.1126(5)
Cd1B Cd -0.5000 -0.23242(6) 0.2500
Cd1B_2 Cd 0.5000 -0.23242(6) 0.2500
Cd2_2 Cd 0.229958(19) 0.23640(4) -0.078971(18)
Cd2_3 Cd 0.229958(19) 1.23640(4) 0.921029(18)
Cd2A_2 Cd -0.229958(19) 0.23640(4) 0.578971(18)
Cd2A_3 Cd -0.229958(19) 1.23640(4) -0.421029(18)
Cd2F Cd 0.270042(19) 0.26360(4) 0.078971(18)
Cd2G Cd -0.270042(19) 0.26360(4) 0.421029(18)
O2F O -0.3229(2) 0.2310(5) -0.4275(2)
O2G O 0.3229(2) 0.2310(5) 0.9275(2)
O6_2 O -0.1727(2) 0.2392(5) -0.4863(2)
O6A_2 O 0.1727(2) 0.2392(5) 0.9863(2)
N2_2 N 0.2257(3) 0.0717(5) 0.9285(3)
N2A_2 N -0.2257(3) 0.0717(5) -0.4285(3)
N4B N -0.0674(3) 0.4008(9) 0.2515(4)
N4C N 0.0674(3) 0.4008(9) 0.2485(4)
O9 O -0.0498(5) 0.3446(11) 0.6476(5)
O10 O 0.0449(6) 0.1268(14) 0.8526(6)
C41? C 0.2425(8) 0.7609(15) 0.9343(7)
H29? H 0.2796 0.7423 0.9406
C42? C 0.2021(8) 0.7104(14) 0.9269(7)
H30? H 0.1647 0.7274 0.9211
C43? C 0.2262(7) 0.0071(14) 0.2379(12)
H31? H 0.2289 -0.0186 0.2041
C44? C 0.2728(8) 0.000(3) 0.2717(8)
H32? H 0.2754 0.0130 0.3082
C45? C 0.4136(4) -0.0532(9) 0.2160(5)
H33? H 0.4418 -0.0328 0.1965
C46? C 0.3638(5) -0.0026(8) 0.2130(5)
H34? H 0.3588 0.0518 0.1916
C47? C 0.3216(4) -0.0332(8) 0.2421(5)
C48? C 0.3291(4) -0.1144(8) 0.2742(5)
H35? H 0.3009 -0.1349 0.2936
C49? C 0.3788(4) -0.1651(7) 0.2771(4)
H36? H 0.3839 -0.2195 0.2986
N6? N 0.4211(4) -0.1345(8) 0.2481(5)
N7? N 0.0679(4) 0.1358(11) 0.2508(5)
C50? C 0.0774(4) 0.0861(11) 0.2047(5)
H37? H 0.0495 0.0819 0.1760
C51? C 0.1286(5) 0.0427(10) 0.2015(5)
H38? H 0.1350 0.0095 0.1707
C52? C 0.1704(4) 0.0490(11) 0.2444(5)
C53? C 0.1609(5) 0.0987(12) 0.2904(5)
H39? H 0.1888 0.1028 0.3191
C54? C 0.1096(6) 0.1420(11) 0.2936(4)
H40? H 0.1033 0.1753 0.3245
O8? O 0.0717(5) 0.2320(16) 0.3851(5)
loop_
_geom_bond_atom_site_label_1
_geom_bond_atom_site_label_2
_geom_bond_site_symmetry_1
_geom_bond_site_symmetry_2
Cd1 O3 1_555 1_555
Cd2 O1 1_555 1_555
O1 C13 1_555 1_555
O2 C14 1_555 1_555
O3 C15 1_555 1_555
N1 Cd2 1_555 1_555
O4 C16 1_555 1_555
O5 Cd2 1_555 1_555
O6 C14 1_555 1_555
N2 C17 1_555 1_555
C1 C2 1_555 1_555
C2 H1 1_555 1_555
C3 C2 1_555 1_555
H2 C3 1_555 1_555
C4 C3 1_555 1_555
C5 C4 1_555 1_555
H3 C5 1_555 1_555
C6 C1 1_555 1_555
H4 C6 1_555 1_555
C7 C8 1_555 1_555
C8 H5 1_555 1_555
C9 C8 1_555 1_555
C10 C9 1_555 1_555
H6 C10 1_555 1_555
C11 C10 1_555 1_555
C12 C7 1_555 1_555
H7 C12 1_555 1_555
C13 O5 1_555 1_555
C14 C9 1_555 1_555
C15 C11 1_555 1_555
C16 C4 1_555 1_555
C17 H8 1_555 1_555
C18 C17 1_555 1_555
H9 C18 1_555 1_555
C19 C18 1_555 1_555
C20 C19 1_555 1_555
H10 C20 1_555 1_555
C21 N2 1_555 1_555
H11 C21 1_555 1_555
C22 C19 1_555 1_555
H12 C22 1_555 1_555
C23 C22 1_555 1_555
H13 C23 1_555 1_555
C24 N1 1_555 1_555
H14 C24 1_555 1_555
C25 C24 1_555 1_555
H15 C25 1_555 1_555
C26 C23 1_555 1_555
C27 C26 1_555 1_555
H16 C27 1_555 1_555
C28 N1 1_555 1_555
H17 C28 1_555 1_555
N3 C7 1_555 1_555
H18 N3 1_555 1_555
C29 H19 1_555 1_555
C30 C29 1_555 1_555
H20 C30 1_555 1_555
C31 H21 1_555 1_555
C32 C31 1_555 1_555
H22 C32 1_555 1_555
C33 C30 1_555 1_555
C34 C33 1_555 1_555
H23 C34 1_555 1_555
C35 C34 1_555 1_555
H24 C35 1_555 1_555
N4 C31 1_555 1_555
N5 Cd1 1_555 1_555
C36 N5 1_555 1_555
H25 C36 1_555 1_555
C37 C36 1_555 1_555
H26 C37 1_555 1_555
C38 C29 1_555 1_555
C39 C38 1_555 1_555
H27 C39 1_555 1_555
C40 N5 1_555 1_555
H28 C40 1_555 1_555
O7 C15 1_555 1_555
Cd2A O1A 1_555 1_555
O1A C13A 1_555 1_555
O2A C14A 1_555 1_555
O3A Cd1 1_555 1_555
N1A Cd2A 1_555 1_555
O4A C16A 1_555 1_555
O5A Cd2A 1_555 1_555
O6A C14A 1_555 1_555
N2A C17A 1_555 1_555
C1A C2A 1_555 1_555
C2A H1A 1_555 1_555
C3A C2A 1_555 1_555
H2A C3A 1_555 1_555
C4A C3A 1_555 1_555
C5A C4A 1_555 1_555
H3A C5A 1_555 1_555
C6A C1A 1_555 1_555
H4A C6A 1_555 1_555
C7A C8A 1_555 1_555
C8A H5A 1_555 1_555
C9A C8A 1_555 1_555
C10A C9A 1_555 1_555
H6A C10A 1_555 1_555
C11A C10A 1_555 1_555
C12A C7A 1_555 1_555
H7A C12A 1_555 1_555
C13A O5A 1_555 1_555
C14A C9A 1_555 1_555
C15A O3A 1_555 1_555
C16A C4A 1_555 1_555
C17A H8A 1_555 1_555
C18A C17A 1_555 1_555
H9A C18A 1_555 1_555
C19A C18A 1_555 1_555
C20A C19A 1_555 1_555
H10A C20A 1_555 1_555
C21A N2A 1_555 1_555
H11A C21A 1_555 1_555
C22A C19A 1_555 1_555
H12A C22A 1_555 1_555
C23A C22A 1_555 1_555
H13A C23A 1_555 1_555
C24A N1A 1_555 1_555
H14A C24A 1_555 1_555
C25A C24A 1_555 1_555
H15A C25A 1_555 1_555
C26A C23A 1_555 1_555
C27A C26A 1_555 1_555
H16A C27A 1_555 1_555
C28A N1A 1_555 1_555
H17A C28A 1_555 1_555
N3A C7A 1_555 1_555
H18A N3A 1_555 1_555
C29A H19A 1_555 1_555
C30A C29A 1_555 1_555
H20A C30A 1_555 1_555
C31A H21A 1_555 1_555
C32A C31A 1_555 1_555
H22A C32A 1_555 1_555
C33A C30A 1_555 1_555
C34A C33A 1_555 1_555
H23A C34A 1_555 1_555
C35A C34A 1_555 1_555
H24A C35A 1_555 1_555
N4A C31A 1_555 1_555
N5A Cd1 1_555 1_555
C36A N5A 1_555 1_555
H25A C36A 1_555 1_555
C37A C36A 1_555 1_555
H26A C37A 1_555 1_555
C38A C29A 1_555 1_555
C39A C38A 1_555 1_555
H27A C39A 1_555 1_555
C40A N5A 1_555 1_555
H28A C40A 1_555 1_555
O7A C15A 1_555 1_555
Cd1B N4A 1_555 1_555
Cd1B_2 N4 1_555 1_555
Cd2_2 O6A 1_555 1_555
Cd2_3 N2 1_555 1_555
Cd2A_2 O6 1_555 1_555
Cd2A_3 N2A 1_555 1_555
Cd2F O2A 1_555 1_555
Cd2G O2 1_555 1_555
O2F Cd2A 1_555 1_555
O2G Cd2 1_555 1_555
O6_2 Cd2A 1_555 1_555
O6A_2 Cd2 1_555 1_555
N2_2 Cd2 1_555 1_555
N2A_2 Cd2A 1_555 1_555
N4B Cd1 1_555 1_555
N4C Cd1 1_555 1_555
C1 C13 1_555 1_555
C5 C6 1_555 1_555
C11 C12 1_555 1_555
C16 N3 1_555 1_555
C20 C21 1_555 1_555
C25 C26 1_555 1_555
C27 C28 1_555 1_555
C32 C33 1_555 1_555
C35 N4 1_555 1_555
C37 C38 1_555 1_555
C39 C40 1_555 1_555
C1A C13A 1_555 1_555
C5A C6A 1_555 1_555
C11A C12A 1_555 1_555
C11A C15A 1_555 1_555
C16A N3A 1_555 1_555
C20A C21A 1_555 1_555
C25A C26A 1_555 1_555
C27A C28A 1_555 1_555
C32A C33A 1_555 1_555
C35A N4A 1_555 1_555
C37A C38A 1_555 1_555
C39A C40A 1_555 1_555

#END
