
#######################################################################
#
#                 Cambridge Crystallographic Data Centre
#                                CCDC 
#
#######################################################################
#
# If this CIF has been generated from an entry in the Cambridge 
# Structural Database, then it will include bibliographic, chemical, 
# crystal, experimental, refinement or atomic coordinate data resulting 
# from the CCDC's data processing and validation procedures.
#
#######################################################################

data_ZILCII
_symmetry_cell_setting           monoclinic
_symmetry_space_group_name_H-M   'P 21/n'
_symmetry_Int_Tables_number      14
_space_group_name_Hall           '-P 2yn'
loop_
_symmetry_equiv_pos_site_id
_symmetry_equiv_pos_as_xyz
1 x,y,z
2 1/2-x,1/2+y,1/2-z
3 -x,-y,-z
4 1/2+x,1/2-y,1/2+z
_cell_length_a                   9.1878(9)
_cell_length_b                   16.2003(15)
_cell_length_c                   9.2329(11)
_cell_angle_alpha                90
_cell_angle_beta                 95.635(9)
_cell_angle_gamma                90
_cell_volume                     1367.63
loop_
_atom_site_label
_atom_site_type_symbol
_atom_site_fract_x
_atom_site_fract_y
_atom_site_fract_z
Cu1 Cu 1.08090(3) -0.12873(2) -0.35697(4)
N1 N 0.9319(2) 0.01010(13) -0.2415(2)
N2 N 0.6829(2) -0.01261(14) -0.3051(3)
N3 N 0.5782(2) -0.05455(15) -0.3795(3)
N4 N 1.0724(2) -0.01708(14) -0.2492(3)
N5 N 0.8621(2) -0.09097(14) -0.4122(2)
C1 C 0.5028(3) -0.16343(16) -0.5432(3)
C2 C 0.5318(3) -0.22387(17) -0.6462(3)
C3 C 0.8201(3) -0.03270(15) -0.3230(3)
N6 N 0.7576(2) -0.13377(13) -0.4890(3)
C4 C 1.0716(4) 0.0957(2) -0.1113(4)
H1 H 1.1061 0.1392 -0.0518
C5 C 0.7952(4) 0.1253(2) -0.1238(4)
H2 H 0.7099 0.0978 -0.1688
H3 H 0.7990 0.1804 -0.1612
H4 H 0.7907 0.1273 -0.0204
C6 C 1.3192(3) 0.0273(2) -0.1576(4)
H5 H 1.3462 -0.0209 -0.2091
H6 H 1.3550 0.0225 -0.0567
H7 H 1.3611 0.0753 -0.1982
C7 C 1.1567(3) 0.03528(18) -0.1713(3)
C8 C 0.9291(3) 0.07906(17) -0.1564(3)
C9 C 0.6185(3) -0.11536(15) -0.4685(3)
C10 C 0.3603(3) -0.15080(16) -0.5062(3)
N7 N 0.2459(3) -0.13864(14) -0.4707(3)
N8 N 0.5543(2) -0.27303(15) -0.7295(3)
Cu1_2 Cu 0.08090(3) -0.12873(2) -0.35697(4)
Cu1C Cu 0.58090(3) -0.37127(2) -0.85697(4)
N7_2 N 1.2459(3) -0.13864(14) -0.4707(3)
N8C N 1.0543(2) -0.22697(15) -0.2295(3)
N9 N 1.2954(4) 0.1835(2) 0.1546(4)
C11 C 1.4121(4) 0.2006(2) 0.1417(4)
C12 C 1.5589(5) 0.2228(3) 0.1274(5)
H8 H 1.6222 0.1777 0.1585
H9 H 1.5845 0.2704 0.1866
H10 H 1.5697 0.2355 0.0274
loop_
_geom_bond_atom_site_label_1
_geom_bond_atom_site_label_2
_geom_bond_site_symmetry_1
_geom_bond_site_symmetry_2
Cu1 N4 1_555 1_555
N1 N4 1_555 1_555
N2 N3 1_555 1_555
N3 C9 1_555 1_555
N4 C7 1_555 1_555
N5 Cu1 1_555 1_555
C1 C2 1_555 1_555
C2 N8 1_555 1_555
C3 N1 1_555 1_555
N6 N5 1_555 1_555
C4 H1 1_555 1_555
C5 H2 1_555 1_555
H3 C5 1_555 1_555
H4 C5 1_555 1_555
C6 H5 1_555 1_555
H6 C6 1_555 1_555
H7 C6 1_555 1_555
C7 C4 1_555 1_555
C8 N1 1_555 1_555
C9 C1 1_555 1_555
C10 C1 1_555 1_555
N7 C10 1_555 1_555
N8 Cu1C 1_555 1_555
N9 C11 1_555 1_555
C11 C12 1_555 1_555
C12 H8 1_555 1_555
H9 C12 1_555 1_555
H10 C12 1_555 1_555
Cu1_2 N7 1_555 1_555
N7_2 Cu1 1_555 1_555
N8C Cu1 1_555 1_555
N2 C3 1_555 1_555
N5 C3 1_555 1_555
N6 C9 1_555 1_555
C4 C8 1_555 1_555
C5 C8 1_555 1_555
C6 C7 1_555 1_555

#END
