
#######################################################################
#
#                 Cambridge Crystallographic Data Centre
#                                CCDC 
#
#######################################################################
#
# If this CIF has been generated from an entry in the Cambridge 
# Structural Database, then it will include bibliographic, chemical, 
# crystal, experimental, refinement or atomic coordinate data resulting 
# from the CCDC's data processing and validation procedures.
#
#######################################################################

data_ZILSUK
_symmetry_cell_setting           triclinic
_symmetry_space_group_name_H-M   'P -1'
_symmetry_Int_Tables_number      2
_space_group_name_Hall           '-P 1'
loop_
_symmetry_equiv_pos_site_id
_symmetry_equiv_pos_as_xyz
1 x,y,z
2 -x,-y,-z
_cell_length_a                   9.576(6)
_cell_length_b                   13.243(9)
_cell_length_c                   25.231(17)
_cell_angle_alpha                100.051(7)
_cell_angle_beta                 96.909(7)
_cell_angle_gamma                100.431(7)
_cell_volume                     3060.14
loop_
_atom_site_label
_atom_site_type_symbol
_atom_site_fract_x
_atom_site_fract_y
_atom_site_fract_z
Eu1 Eu 0.763175(15) 0.528368(13) 0.510937(6)
O1 O 0.6789(3) 0.6943(2) 0.53859(11)
H1 H 0.5912 0.6902 0.5358
H2 H 0.7246 0.7516 0.5568
O2 O 0.9394(2) 0.6431(2) 0.58623(10)
H3 H 1.0214 0.6303 0.5891
H4 H 0.9436 0.7073 0.5895
O3 O 0.6423(3) 0.5009(2) 0.58287(10)
O4 O 0.4085(3) 0.4541(2) 0.55747(9)
O5 O 0.9113(2) 0.43020(19) 0.54790(10)
O6 O 1.0958(3) 0.3571(2) 0.53273(11)
O7 O 0.6165(2) 0.3419(2) 0.47276(10)
O8 O 0.7977(2) 0.39936(18) 0.43255(9)
N1 N 0.5728(3) 0.7059(2) 0.85208(11)
H5 H 0.6577 0.7276 0.8452
N2 N 0.3435(3) 0.6269(2) 0.83843(11)
N3 N 0.7292(3) 0.0849(2) 0.72715(11)
H6 H 0.6715 0.1275 0.7264
N4 N 0.9066(3) 0.0050(2) 0.70815(11)
N5 N 0.5379(3) -0.1537(2) 0.28075(12)
N6 N 0.7590(3) -0.0887(2) 0.26873(11)
H7 H 0.8394 -0.0452 0.2719
C1 C 0.5172(4) 0.4944(3) 0.59266(13)
C2 C 0.4985(3) 0.5342(3) 0.65008(12)
C3 C 0.6132(3) 0.5986(3) 0.68545(13)
H8 H 0.7008 0.6163 0.6735
C4 C 0.5994(4) 0.6370(3) 0.73845(13)
H9 H 0.6776 0.6816 0.7616
C5 C 0.4710(3) 0.6104(3) 0.75808(13)
C6 C 0.3537(4) 0.5480(3) 0.72191(13)
H10 H 0.2658 0.5313 0.7338
C7 C 0.3665(3) 0.5104(3) 0.66828(13)
H11 H 0.2871 0.4693 0.6443
C8 C 0.4587(4) 0.6458(3) 0.81521(13)
C9 C 0.5284(4) 0.7254(3) 0.90180(13)
C10 C 0.3862(4) 0.6770(3) 0.89300(13)
C11 C 0.2812(4) 0.6771(3) 0.93122(14)
C12 C 0.2872(5) 0.7614(4) 0.97239(18)
H12 H 0.3596 0.8206 0.9765
C13 C 0.1873(7) 0.7600(5) 1.0080(2)
H13 H 0.1965 0.8163 1.0369
C14 C 0.0748(7) 0.6757(6) 1.0006(2)
H14 H 0.0065 0.6755 1.0239
C15 C 0.0639(6) 0.5928(6) 0.9593(2)
H15 H -0.0137 0.5364 0.9537
C16 C 0.1672(5) 0.5911(4) 0.92523(18)
H16 H 0.1608 0.5323 0.8981
C17 C 0.6288(4) 0.7858(3) 0.95047(14)
C18 C 0.7033(5) 0.8860(4) 0.95200(18)
H17 H 0.6898 0.9175 0.9221
C19 C 0.7997(5) 0.9399(4) 0.9989(2)
H18 H 0.8496 1.0076 1.0001
C20 C 0.8207(5) 0.8945(5) 1.0423(2)
H19 H 0.8866 0.9304 1.0728
C21 C 0.7467(6) 0.7975(5) 1.04153(19)
H20 H 0.7599 0.7678 1.0721
C22 C 0.6506(5) 0.7409(4) 0.99569(17)
H21 H 0.6014 0.6734 0.9954
C23 C 0.9862(3) 0.3645(3) 0.55416(12)
C24 C 0.9445(3) 0.2880(3) 0.59026(13)
C25 C 0.8202(4) 0.2857(3) 0.61336(19)
H22 H 0.7598 0.3308 0.6058
C26 C 0.7848(4) 0.2178(4) 0.64730(19)
H23 H 0.7013 0.2180 0.6626
C27 C 0.8719(3) 0.1490(3) 0.65903(13)
C28 C 0.9927(4) 0.1493(3) 0.63465(16)
H24 H 1.0509 0.1021 0.6407
C29 C 1.0285(4) 0.2184(3) 0.60144(16)
H25 H 1.1120 0.2181 0.5861
C30 C 0.8364(3) 0.0795(3) 0.69710(13)
C31 C 0.7277(3) 0.0111(3) 0.75903(14)
C32 C 0.8388(3) -0.0383(3) 0.74757(13)
C33 C 0.8943(3) -0.1185(3) 0.77199(15)
C34 C 0.8976(4) -0.1175(3) 0.82803(16)
H26 H 0.8604 -0.0675 0.8495
C35 C 0.9565(5) -0.1914(4) 0.8513(2)
H27 H 0.9588 -0.1909 0.8883
C36 C 1.0122(5) -0.2663(4) 0.8189(2)
H28 H 1.0518 -0.3155 0.8345
C37 C 1.0088(4) -0.2678(4) 0.7643(2)
H29 H 1.0451 -0.3183 0.7428
C38 C 0.9513(4) -0.1943(3) 0.74122(18)
H30 H 0.9507 -0.1954 0.7042
C39 C 0.6181(3) -0.0011(3) 0.79584(14)
C40 C 0.5994(4) 0.0835(3) 0.83245(16)
H31 H 0.6600 0.1484 0.8359
C41 C 0.4915(5) 0.0734(4) 0.86422(19)
H32 H 0.4802 0.1314 0.8887
C42 C 0.4011(5) -0.0214(4) 0.8599(2)
H33 H 0.3293 -0.0280 0.8816
C43 C 0.4173(4) -0.1068(4) 0.82335(19)
H34 H 0.3561 -0.1714 0.8202
C44 C 0.5248(4) -0.0968(3) 0.79113(16)
H35 H 0.5344 -0.1547 0.7661
C45 C 0.6945(3) 0.3273(3) 0.43690(13)
C46 C 0.6704(3) 0.2236(3) 0.39828(13)
C47 C 0.5889(4) 0.1338(3) 0.40830(15)
H36 H 0.5400 0.1385 0.4380
C48 C 0.5783(4) 0.0373(3) 0.37515(16)
H37 H 0.5232 -0.0223 0.3828
C49 C 0.6500(3) 0.0291(3) 0.33026(14)
C50 C 0.7280(3) 0.1205(3) 0.31877(14)
H38 H 0.7737 0.1165 0.2882
C51 C 0.7380(3) 0.2160(3) 0.35223(13)
H39 H 0.7903 0.2761 0.3441
C52 C 0.6464(3) -0.0716(3) 0.29454(14)
C53 C 0.5834(4) -0.2264(3) 0.24347(15)
C54 C 0.7222(3) -0.1877(3) 0.23657(14)
C55 C 0.8279(3) -0.2308(3) 0.20704(14)
C56 C 0.9130(4) -0.1699(3) 0.17925(14)
H40 H 0.8994 -0.1026 0.1776
C57 C 1.0192(4) -0.2085(4) 0.15352(16)
H41 H 1.0752 -0.1674 0.1344
C58 C 1.0407(5) -0.3068(4) 0.15654(18)
H42 H 1.1127 -0.3322 0.1401
C59 C 0.9566(5) -0.3676(4) 0.1838(2)
H43 H 0.9711 -0.4346 0.1855
C60 C 0.8494(4) -0.3306(3) 0.20892(19)
H44 H 0.7920 -0.3729 0.2271
C61 C 0.4815(4) -0.3230(3) 0.21332(18)
C62 C 0.3768(4) -0.3743(3) 0.2381(2)
H45 H 0.3739 -0.3512 0.2748
C63 C 0.2756(5) -0.4609(4) 0.2080(3)
H46 H 0.2054 -0.4950 0.2249
C64 C 0.2784(6) -0.4956(4) 0.1547(3)
H47 H 0.2091 -0.5525 0.1349
C65 C 0.3824(6) -0.4477(4) 0.1297(2)
H48 H 0.3860 -0.4730 0.0932
C66 C 0.4838(5) -0.3602(4) 0.1592(2)
H49 H 0.5537 -0.3268 0.1419
Eu1A Eu 0.236825(15) 0.471632(13) 0.489063(6)
Eu1A_2 Eu 1.236825(15) 0.471632(13) 0.489063(6)
O4A O 0.5915(3) 0.5459(2) 0.44253(9)
O6A O 0.9042(3) 0.6429(2) 0.46727(11)
O9 O 0.1026(4) 0.1440(3) 0.39744(15)
H50 H 0.1145 0.1006 0.3714
H51 H 0.0530 0.1248 0.4211
O10 O 0.9423(16) 0.0802(12) 0.4700(4)
H52 H 0.9693 0.0335 0.4856
H53 H 1.0121 0.1229 0.4901
O11 O 0.5911(15) 0.7888(10) 0.4347(6)
H54 H 0.5786 0.7361 0.4482
H55 H 0.6648 0.8334 0.4519
loop_
_geom_bond_atom_site_label_1
_geom_bond_atom_site_label_2
_geom_bond_site_symmetry_1
_geom_bond_site_symmetry_2
Eu1 O1 1_555 1_555
O1 H1 1_555 1_555
H2 O1 1_555 1_555
O2 Eu1 1_555 1_555
H3 O2 1_555 1_555
H4 O2 1_555 1_555
O3 Eu1 1_555 1_555
O4 C1 1_555 1_555
O5 Eu1 1_555 1_555
O6 C23 1_555 1_555
O7 Eu1 1_555 1_555
O8 Eu1 1_555 1_555
N1 H5 1_555 1_555
N2 C8 1_555 1_555
N3 H6 1_555 1_555
N4 C30 1_555 1_555
N5 C52 1_555 1_555
N6 H7 1_555 1_555
C1 O3 1_555 1_555
C2 C1 1_555 1_555
C3 C2 1_555 1_555
H8 C3 1_555 1_555
C4 C3 1_555 1_555
H9 C4 1_555 1_555
C5 C4 1_555 1_555
C6 C5 1_555 1_555
H10 C6 1_555 1_555
C7 C2 1_555 1_555
H11 C7 1_555 1_555
C8 N1 1_555 1_555
C9 N1 1_555 1_555
C10 N2 1_555 1_555
C11 C10 1_555 1_555
C12 C11 1_555 1_555
H12 C12 1_555 1_555
C13 C12 1_555 1_555
H13 C13 1_555 1_555
C14 C13 1_555 1_555
H14 C14 1_555 1_555
C15 C14 1_555 1_555
H15 C15 1_555 1_555
C16 C11 1_555 1_555
H16 C16 1_555 1_555
C17 C9 1_555 1_555
C18 C17 1_555 1_555
H17 C18 1_555 1_555
C19 C18 1_555 1_555
H18 C19 1_555 1_555
C20 C19 1_555 1_555
H19 C20 1_555 1_555
C21 C20 1_555 1_555
H20 C21 1_555 1_555
C22 C17 1_555 1_555
H21 C22 1_555 1_555
C23 O5 1_555 1_555
C24 C23 1_555 1_555
C25 C24 1_555 1_555
H22 C25 1_555 1_555
C26 C25 1_555 1_555
H23 C26 1_555 1_555
C27 C26 1_555 1_555
C28 C27 1_555 1_555
H24 C28 1_555 1_555
C29 C24 1_555 1_555
H25 C29 1_555 1_555
C30 N3 1_555 1_555
C31 N3 1_555 1_555
C32 N4 1_555 1_555
C33 C32 1_555 1_555
C34 C33 1_555 1_555
H26 C34 1_555 1_555
C35 C34 1_555 1_555
H27 C35 1_555 1_555
C36 C35 1_555 1_555
H28 C36 1_555 1_555
C37 C36 1_555 1_555
H29 C37 1_555 1_555
C38 C33 1_555 1_555
H30 C38 1_555 1_555
C39 C31 1_555 1_555
C40 C39 1_555 1_555
H31 C40 1_555 1_555
C41 C40 1_555 1_555
H32 C41 1_555 1_555
C42 C41 1_555 1_555
H33 C42 1_555 1_555
C43 C42 1_555 1_555
H34 C43 1_555 1_555
C44 C39 1_555 1_555
H35 C44 1_555 1_555
C45 O7 1_555 1_555
C46 C45 1_555 1_555
C47 C46 1_555 1_555
H36 C47 1_555 1_555
C48 C47 1_555 1_555
H37 C48 1_555 1_555
C49 C48 1_555 1_555
C50 C49 1_555 1_555
H38 C50 1_555 1_555
C51 C46 1_555 1_555
H39 C51 1_555 1_555
C52 N6 1_555 1_555
C53 N5 1_555 1_555
C54 N6 1_555 1_555
C55 C54 1_555 1_555
C56 C55 1_555 1_555
H40 C56 1_555 1_555
C57 C56 1_555 1_555
H41 C57 1_555 1_555
C58 C57 1_555 1_555
H42 C58 1_555 1_555
C59 C58 1_555 1_555
H43 C59 1_555 1_555
C60 C55 1_555 1_555
H44 C60 1_555 1_555
C61 C53 1_555 1_555
C62 C61 1_555 1_555
H45 C62 1_555 1_555
C63 C62 1_555 1_555
H46 C63 1_555 1_555
C64 C63 1_555 1_555
H47 C64 1_555 1_555
C65 C64 1_555 1_555
H48 C65 1_555 1_555
C66 C61 1_555 1_555
H49 C66 1_555 1_555
O9 H50 1_555 1_555
H51 O9 1_555 1_555
O10 H52 1_555 1_555
H53 O10 1_555 1_555
O11 H54 1_555 1_555
H55 O11 1_555 1_555
Eu1A O4 1_555 1_555
Eu1A_2 O6 1_555 1_555
O4A Eu1 1_555 1_555
O6A Eu1 1_555 1_555
O8 C45 1_555 1_555
C5 C8 1_555 1_555
C6 C7 1_555 1_555
C9 C10 1_555 1_555
C15 C16 1_555 1_555
C21 C22 1_555 1_555
C27 C30 1_555 1_555
C28 C29 1_555 1_555
C31 C32 1_555 1_555
C37 C38 1_555 1_555
C43 C44 1_555 1_555
C49 C52 1_555 1_555
C50 C51 1_555 1_555
C53 C54 1_555 1_555
C59 C60 1_555 1_555
C65 C66 1_555 1_555

#END
