
#######################################################################
#
#                 Cambridge Crystallographic Data Centre
#                                CCDC 
#
#######################################################################
#
# If this CIF has been generated from an entry in the Cambridge 
# Structural Database, then it will include bibliographic, chemical, 
# crystal, experimental, refinement or atomic coordinate data resulting 
# from the CCDC's data processing and validation procedures.
#
#######################################################################

data_ZILVOH
_symmetry_cell_setting           orthorhombic
_symmetry_space_group_name_H-M   'P 21 21 21'
_symmetry_Int_Tables_number      19
_space_group_name_Hall           'P 2ac 2ab'
loop_
_symmetry_equiv_pos_site_id
_symmetry_equiv_pos_as_xyz
1 x,y,z
2 1/2-x,-y,1/2+z
3 -x,1/2+y,1/2-z
4 1/2+x,1/2-y,-z
_cell_length_a                   7.6568(4)
_cell_length_b                   11.6315(7)
_cell_length_c                   15.2211(9)
_cell_angle_alpha                90
_cell_angle_beta                 90
_cell_angle_gamma                90
_cell_volume                     1355.59
loop_
_atom_site_label
_atom_site_type_symbol
_atom_site_fract_x
_atom_site_fract_y
_atom_site_fract_z
Mo1 Mo 1.10617(3) 0.516653(16) 0.678034(12)
N1 N 0.8974(3) 0.65077(15) 0.68002(12)
N2 N 0.8446(3) 0.69235(18) 0.59845(12)
N3 N 0.7652(3) 0.80035(18) 0.34437(12)
O1 O 1.1216(2) 0.56151(17) 0.79966(10)
O2 O 1.0454(2) 0.55658(14) 0.55308(10)
O3 O 0.9665(3) 0.40467(15) 0.68754(14)
O4 O 1.3059(2) 0.45839(17) 0.65807(12)
C1 C 0.8507(3) 0.6549(2) 0.83663(14)
C2 C 0.9963(3) 0.5896(2) 0.85907(15)
C3 C 1.0203(4) 0.5557(3) 0.94598(17)
H1 H 1.1175 0.5123 0.9617
C4 C 0.8992(5) 0.5867(3) 1.00850(16)
H2 H 0.9146 0.5622 1.0662
C5 C 0.7560(4) 0.6528(3) 0.98790(17)
H3 H 0.6761 0.6737 1.0311
C6 C 0.7331(4) 0.6878(2) 0.90166(17)
H4 H 0.6381 0.7337 0.8871
C7 C 0.8156(3) 0.6911(2) 0.74706(15)
H5 H 0.7296 0.7462 0.7377
C8 C 0.9280(3) 0.63706(19) 0.53768(15)
C9 C 0.8939(3) 0.66664(18) 0.44518(13)
C10 C 0.8088(3) 0.7683(2) 0.42540(14)
H6 H 0.7802 0.8172 0.4715
C11 C 0.8104(3) 0.7296(2) 0.27885(15)
H7 H 0.7810 0.7501 0.2217
C12 C 0.8984(4) 0.6282(2) 0.29218(14)
H8 H 0.9276 0.5818 0.2446
C13 C 0.9433(3) 0.5953(2) 0.37636(15)
H9 H 1.0046 0.5276 0.3866
Mo1C Mo 0.60617(3) 0.983347(16) 0.321966(12)
N3C N 1.2652(3) 0.69965(18) 0.65563(12)
loop_
_geom_bond_atom_site_label_1
_geom_bond_atom_site_label_2
_geom_bond_site_symmetry_1
_geom_bond_site_symmetry_2
Mo1 N1 1_555 1_555
N1 N2 1_555 1_555
N2 C8 1_555 1_555
N3 C10 1_555 1_555
O1 Mo1 1_555 1_555
O2 Mo1 1_555 1_555
O3 Mo1 1_555 1_555
O4 Mo1 1_555 1_555
C1 C2 1_555 1_555
C2 O1 1_555 1_555
C3 C2 1_555 1_555
H1 C3 1_555 1_555
C4 C3 1_555 1_555
H2 C4 1_555 1_555
C5 C4 1_555 1_555
H3 C5 1_555 1_555
C6 C1 1_555 1_555
H4 C6 1_555 1_555
C7 N1 1_555 1_555
H5 C7 1_555 1_555
C8 O2 1_555 1_555
C9 C8 1_555 1_555
C10 C9 1_555 1_555
H6 C10 1_555 1_555
C11 N3 1_555 1_555
H7 C11 1_555 1_555
C12 C11 1_555 1_555
H8 C12 1_555 1_555
C13 C9 1_555 1_555
H9 C13 1_555 1_555
Mo1C N3 1_555 1_555
N3C Mo1 1_555 1_555
C1 C7 1_555 1_555
C5 C6 1_555 1_555
C12 C13 1_555 1_555

#END
