
#######################################################################
#
#                 Cambridge Crystallographic Data Centre
#                                CCDC 
#
#######################################################################
#
# If this CIF has been generated from an entry in the Cambridge 
# Structural Database, then it will include bibliographic, chemical, 
# crystal, experimental, refinement or atomic coordinate data resulting 
# from the CCDC's data processing and validation procedures.
#
#######################################################################

data_ZIMDUU
_symmetry_cell_setting           monoclinic
_symmetry_space_group_name_H-M   'P 21/n'
_symmetry_Int_Tables_number      14
_space_group_name_Hall           '-P 2yn'
loop_
_symmetry_equiv_pos_site_id
_symmetry_equiv_pos_as_xyz
1 x,y,z
2 1/2-x,1/2+y,1/2-z
3 -x,-y,-z
4 1/2+x,1/2-y,1/2+z
_cell_length_a                   12.900(3)
_cell_length_b                   8.773(3)
_cell_length_c                   14.702(4)
_cell_angle_alpha                90
_cell_angle_beta                 101.99(2)
_cell_angle_gamma                90
_cell_volume                     1627.55
loop_
_atom_site_label
_atom_site_type_symbol
_atom_site_fract_x
_atom_site_fract_y
_atom_site_fract_z
Cu1 Cu 0.0811(2) 0.2093(3) 0.2127(1)
C1 C 0.251(1) -0.046(2) 0.2325(9)
C2 C 0.188(1) 0.050(2) 0.087(1)
C3 C 0.270(1) -0.027(2) 0.057(1)
C4 C 0.337(1) -0.113(2) 0.119(1)
C5 C 0.236(1) -0.056(2) 0.331(1)
N1 N 0.324(1) -0.132(1) 0.2069(9)
N2 N 0.1814(9) 0.045(1) 0.1757(8)
C6 C -0.041(1) 0.295(2) 0.019(1)
C7 C 0.103(1) 0.140(2) 0.027(1)
C8 C 0.085(1) 0.132(2) -0.068(1)
C9 C 0.002(1) 0.215(2) -0.117(1)
C10 C -0.113(1) 0.379(2) 0.067(1)
N3 N -0.0640(9) 0.292(2) -0.0756(8)
N4 N 0.042(1) 0.225(2) 0.0712(8)
N5 N -0.026(1) 0.166(2) 0.2832(9)
C11 C -0.083(1) 0.156(2) 0.330(1)
C12 C -0.157(1) 0.145(2) 0.393(1)
H1 H 0.263 0.002 -0.016
H2 H 0.392 -0.159 0.080
H3 H 0.295 -0.131 0.371
H4 H 0.158 -0.100 0.332
H5 H 0.244 0.057 0.362
H6 H 0.146 0.059 -0.085
H7 H 0.006 0.197 -0.189
H8 H -0.176 0.430 0.016
H9 H -0.069 0.467 0.110
H10 H -0.146 0.300 0.110
H11 H -0.226 0.080 0.360
H12 H -0.182 0.258 0.409
H13 H -0.119 0.089 0.456
N1A N 0.176(1) 0.368(1) 0.2931(9)
Cu1A Cu 0.4189(2) -0.2907(3) 0.2873(1)
P1 P 0.0966(4) 0.3282(7) -0.3486(4)
F1 F 0.135(1) 0.187(2) -0.2848(8)
F2 F 0.108(1) 0.236(2) -0.4365(7)
F3 F 0.094(1) 0.418(2) -0.2569(9)
F4 F 0.2166(9) 0.381(2) -0.3418(8)
F5 F 0.064(1) 0.470(2) -0.410(1)
F6 F -0.018(1) 0.281(2) -0.3542(9)
loop_
_geom_bond_atom_site_label_1
_geom_bond_atom_site_label_2
_geom_bond_site_symmetry_1
_geom_bond_site_symmetry_2
Cu1 N2 1_555 1_555
C1 C5 1_555 1_555
C2 C3 1_555 1_555
C3 C4 1_555 1_555
C4 N1 1_555 1_555
C5 H3 1_555 1_555
N1 C1 1_555 1_555
N2 C1 1_555 1_555
C6 C10 1_555 1_555
C7 C2 1_555 1_555
C8 C7 1_555 1_555
C9 C8 1_555 1_555
C10 H8 1_555 1_555
N3 C6 1_555 1_555
N4 Cu1 1_555 1_555
N5 Cu1 1_555 1_555
C11 N5 1_555 1_555
C12 C11 1_555 1_555
H1 C3 1_555 1_555
H2 C4 1_555 1_555
H4 C5 1_555 1_555
H5 C5 1_555 1_555
H6 C8 1_555 1_555
H7 C9 1_555 1_555
H9 C10 1_555 1_555
H10 C10 1_555 1_555
H11 C12 1_555 1_555
H12 C12 1_555 1_555
H13 C12 1_555 1_555
P1 F1 1_555 1_555
F2 P1 1_555 1_555
F3 P1 1_555 1_555
F4 P1 1_555 1_555
F5 P1 1_555 1_555
F6 P1 1_555 1_555
N1A Cu1 1_555 1_555
Cu1A N1 1_555 1_555
C2 N2 1_555 1_555
C6 N4 1_555 1_555
C7 N4 1_555 1_555
C9 N3 1_555 1_555

#END
