
#######################################################################
#
#                 Cambridge Crystallographic Data Centre
#                                CCDC 
#
#######################################################################
#
# If this CIF has been generated from an entry in the Cambridge 
# Structural Database, then it will include bibliographic, chemical, 
# crystal, experimental, refinement or atomic coordinate data resulting 
# from the CCDC's data processing and validation procedures.
#
#######################################################################

data_ZIMDAA
_symmetry_cell_setting           monoclinic
_symmetry_space_group_name_H-M   'P 21/c'
_symmetry_Int_Tables_number      14
_space_group_name_Hall           '-P 2ybc'
loop_
_symmetry_equiv_pos_site_id
_symmetry_equiv_pos_as_xyz
1 x,y,z
2 -x,1/2+y,1/2-z
3 -x,-y,-z
4 x,1/2-y,1/2+z
_cell_length_a                   7.377(2)
_cell_length_b                   14.522(4)
_cell_length_c                   12.275(4)
_cell_angle_alpha                90
_cell_angle_beta                 100.28(2)
_cell_angle_gamma                90
_cell_volume                     1293.9
loop_
_atom_site_label
_atom_site_type_symbol
_atom_site_fract_x
_atom_site_fract_y
_atom_site_fract_z
P1 P 0.5721(2) 0.0951(1) 0.3864(1)
S1 S 0.5032(2) 0.2084(1) 0.4735(2)
S2 S 0.6024(2) 0.1391(2) 0.2288(1)
S3 S 0.3085(2) 0.0321(1) 0.3444(1)
Cu1 Cu 0.79471(8) 0.01724(6) 0.49105(6)
Cl1 Cl 1.0544(2) 0.1044(1) 0.5752(1)
C1 C 0.3143(9) 0.2655(5) 0.3839(7)
C2 C 0.273(1) 0.3550(6) 0.4293(9)
C3 C 0.8492(9) 0.1412(8) 0.2439(6)
C4 C 0.916(1) 0.1450(7) 0.1424(7)
C5 C 0.366(1) -0.0728(5) 0.2721(6)
C6 C 0.257(1) -0.0829(7) 0.1670(9)
H1 H 0.291 0.332 0.500
H2 H 0.332 0.2715 0.3047
H3 H 0.291 -0.1445 0.1387
H4 H 0.375 0.416 0.416
H5 H 0.207 0.2285 0.3594
H6 H 0.875 0.1875 0.084
H7 H 0.375 -0.125 0.332
H8 H 0.875 0.1035 0.3066
H9 H 0.160 0.3875 0.4034
H10 H 0.9361 0.1908 0.2681
H11 H 0.8883 0.0858 0.1077
H12 H 1.0458 0.1523 0.1579
H13 H 0.4819 -0.0746 0.2518
H14 H 0.2729 -0.0339 0.1182
H15 H 0.1234 -0.0834 0.171
Cu1B Cu 0.20529(8) -0.01724(6) 0.50895(6)
P1B P 0.4279(2) -0.0951(1) 0.6136(1)
S1B S 0.4968(2) -0.2084(1) 0.5265(2)
C1B C 0.6857(9) -0.2655(5) 0.6161(7)
C2B C 0.727(1) -0.3550(6) 0.5707(9)
H1B H 0.709 -0.332 0.500
H4B H 0.625 -0.416 0.584
H9B H 0.840 -0.3875 0.5966
H2B H 0.668 -0.2715 0.6953
H5B H 0.793 -0.2285 0.6406
S2B S 0.3976(2) -0.1391(2) 0.7712(1)
C3B C 0.1508(9) -0.1412(8) 0.7561(6)
C4B C 0.084(1) -0.1450(7) 0.8576(7)
H6B H 0.125 -0.1875 0.916
H11B H 0.1117 -0.0858 0.8923
H12B H -0.0458 -0.1523 0.8421
H8B H 0.125 -0.1035 0.6934
H10B H 0.0639 -0.1908 0.7319
S3B S 0.6915(2) -0.0321(1) 0.6556(1)
Cu1B_2 Cu 1.20529(8) -0.01724(6) 0.50895(6)
Cl1B Cl 0.9456(2) -0.1044(1) 0.4248(1)
C5B C 0.634(1) 0.0728(5) 0.7279(6)
C6B C 0.743(1) 0.0829(7) 0.8330(9)
H3B H 0.709 0.1445 0.8613
H14B H 0.7271 0.0339 0.8818
H15B H 0.8766 0.0834 0.829
H7B H 0.625 0.125 0.668
H13B H 0.5181 0.0746 0.7482
Cl1B_2 Cl -0.0544(2) -0.1044(1) 0.4248(1)
Cl1_2 Cl 0.0544(2) 0.1044(1) 0.5752(1)
loop_
_geom_bond_atom_site_label_1
_geom_bond_atom_site_label_2
_geom_bond_site_symmetry_1
_geom_bond_site_symmetry_2
P1 S1 1_555 1_555
S1 C1 1_555 1_555
S2 P1 1_555 1_555
S3 P1 1_555 1_555
Cu1 P1 1_555 1_555
Cl1 Cu1 1_555 1_555
C1 C2 1_555 1_555
C2 H1 1_555 1_555
C3 S2 1_555 1_555
C4 C3 1_555 1_555
C5 S3 1_555 1_555
C6 C5 1_555 1_555
H2 C1 1_555 1_555
H3 C6 1_555 1_555
H4 C2 1_555 1_555
H5 C1 1_555 1_555
H6 C4 1_555 1_555
H7 C5 1_555 1_555
H8 C3 1_555 1_555
H9 C2 1_555 1_555
H10 C3 1_555 1_555
H11 C4 1_555 1_555
H12 C4 1_555 1_555
H13 C5 1_555 1_555
H14 C6 1_555 1_555
H15 C6 1_555 1_555
Cu1B S3 1_555 1_555
P1B Cu1B 1_555 1_555
S1B P1B 1_555 1_555
C1B S1B 1_555 1_555
C2B C1B 1_555 1_555
H1B C2B 1_555 1_555
H4B C2B 1_555 1_555
H9B C2B 1_555 1_555
H2B C1B 1_555 1_555
H5B C1B 1_555 1_555
S2B P1B 1_555 1_555
C3B S2B 1_555 1_555
C4B C3B 1_555 1_555
H6B C4B 1_555 1_555
H11B C4B 1_555 1_555
H12B C4B 1_555 1_555
H8B C3B 1_555 1_555
H10B C3B 1_555 1_555
S3B Cu1 1_555 1_555
Cu1B_2 Cl1 1_555 1_555
Cl1B Cu1 1_555 1_555
C5B S3B 1_555 1_555
C6B C5B 1_555 1_555
H3B C6B 1_555 1_555
H14B C6B 1_555 1_555
H15B C6B 1_555 1_555
H7B C5B 1_555 1_555
H13B C5B 1_555 1_555
Cl1B_2 Cu1B 1_555 1_555
Cl1_2 Cu1B 1_555 1_555
P1B S3B 1_555 1_555
Cu1B_2 Cl1B 1_555 1_555

#END
