
#######################################################################
#
#                 Cambridge Crystallographic Data Centre
#                                CCDC 
#
#######################################################################
#
# If this CIF has been generated from an entry in the Cambridge 
# Structural Database, then it will include bibliographic, chemical, 
# crystal, experimental, refinement or atomic coordinate data resulting 
# from the CCDC's data processing and validation procedures.
#
#######################################################################

data_ZIMNIS
_symmetry_cell_setting           monoclinic
_symmetry_space_group_name_H-M   'P 21/a'
_symmetry_Int_Tables_number      14
_space_group_name_Hall           '-P 2yab'
loop_
_symmetry_equiv_pos_site_id
_symmetry_equiv_pos_as_xyz
1 x,y,z
2 1/2-x,1/2+y,-z
3 -x,-y,-z
4 1/2+x,1/2-y,z
_cell_length_a                   8.558(4)
_cell_length_b                   8.403(3)
_cell_length_c                   11.563(5)
_cell_angle_alpha                90
_cell_angle_beta                 92.97(3)
_cell_angle_gamma                90
_cell_volume                     830.412
loop_
_atom_site_label
_atom_site_type_symbol
_atom_site_fract_x
_atom_site_fract_y
_atom_site_fract_z
Mn1 Mn 0.5000 0.5000 0.0000
N1 N 0.7080(3) 0.6173(3) -0.0635(3)
N2 N 0.7782(3) 0.7309(3) -0.0861(2)
N3 N 0.3533(4) 0.6597(4) -0.1121(2)
N4 N 0.4812(3) 0.6815(3) 0.1466(2)
C1 C 0.5154(4) 0.8342(4) 0.1291(3)
C2 C 0.4811(4) 0.9525(4) 0.2058(3)
C3 C 0.4077(3) 0.9162(4) 0.3057(3)
C4 C 0.3737(4) 0.7569(4) 0.3259(3)
C5 C 0.4130(4) 0.6465(4) 0.2452(3)
C6 C 0.3612(4) 1.0404(4) 0.3909(3)
C7 C 0.4089(6) 1.2089(4) 0.3733(4)
O1 O 0.2890(4) 1.0025(3) 0.4737(3)
H1 H 0.5719(4) 0.8662(4) 0.0509(3)
H2 H 0.5121(4) 1.0745(4) 0.1884(3)
H3 H 0.3145(5) 0.7214(4) 0.4042(3)
H4 H 0.3862(4) 0.5231(4) 0.2615(3)
H5 H 0.3590(55) 1.2722(54) 0.4426(44)
H6 H 0.3699(61) 1.2575(59) 0.2940(51)
H7 H 0.5324(65) 1.2252(58) 0.3680(46)
N3C N 0.8533(4) 0.8403(4) -0.1121(2)
Mn1C Mn 1.0000 1.0000 0.0000
Mn1A Mn 1.0000 0.0000 0.0000
N1A N 0.7920(3) 0.1173(3) 0.0635(3)
N2A N 0.7218(3) 0.2309(3) 0.0861(2)
N3B N 0.6467(4) 0.3403(4) 0.1121(2)
N1B N 0.2920(3) 0.3827(3) 0.0635(3)
N4B N 0.5188(3) 0.3185(3) -0.1466(2)
C1B C 0.4846(4) 0.1658(4) -0.1291(3)
C2B C 0.5189(4) 0.0475(4) -0.2058(3)
C3B C 0.5923(3) 0.0838(4) -0.3057(3)
C4B C 0.6263(4) 0.2431(4) -0.3259(3)
C5B C 0.5870(4) 0.3535(4) -0.2452(3)
H4B H 0.6138(4) 0.4769(4) -0.2615(3)
H3B H 0.6855(5) 0.2786(4) -0.4042(3)
C6B C 0.6388(4) -0.0404(4) -0.3909(3)
C7B C 0.5911(6) -0.2089(4) -0.3733(4)
H5B H 0.6410(55) -0.2722(54) -0.4426(44)
H6B H 0.6301(61) -0.2575(59) -0.2940(51)
H7B H 0.4676(65) -0.2252(58) -0.3680(46)
O1B O 0.7110(4) -0.0025(3) -0.4737(3)
H2B H 0.4879(4) -0.0745(4) -0.1884(3)
H1B H 0.4281(4) 0.1338(4) -0.0509(3)
loop_
_geom_bond_atom_site_label_1
_geom_bond_atom_site_label_2
_geom_bond_site_symmetry_1
_geom_bond_site_symmetry_2
Mn1 N1 1_555 1_555
N1 N2 1_555 1_555
N2 N3C 1_555 1_555
N3 Mn1 1_555 1_555
N4 Mn1 1_555 1_555
C1 N4 1_555 1_555
C2 C1 1_555 1_555
C3 C2 1_555 1_555
C4 C3 1_555 1_555
C5 N4 1_555 1_555
C6 C3 1_555 1_555
C7 C6 1_555 1_555
O1 C6 1_555 1_555
H1 C1 1_555 1_555
H2 C2 1_555 1_555
H3 C4 1_555 1_555
H4 C5 1_555 1_555
H5 C7 1_555 1_555
H6 C7 1_555 1_555
H7 C7 1_555 1_555
N3C Mn1C 1_555 1_555
Mn1A N1A 1_555 1_555
N1A N2A 1_555 1_555
N2A N3B 1_555 1_555
N3B Mn1 1_555 1_555
N1B Mn1 1_555 1_555
N4B Mn1 1_555 1_555
C1B N4B 1_555 1_555
C2B C1B 1_555 1_555
C3B C2B 1_555 1_555
C4B C3B 1_555 1_555
C5B N4B 1_555 1_555
H4B C5B 1_555 1_555
H3B C4B 1_555 1_555
C6B C3B 1_555 1_555
C7B C6B 1_555 1_555
H5B C7B 1_555 1_555
H6B C7B 1_555 1_555
H7B C7B 1_555 1_555
O1B C6B 1_555 1_555
H2B C2B 1_555 1_555
H1B C1B 1_555 1_555
C4 C5 1_555 1_555
C4B C5B 1_555 1_555

#END
