
#######################################################################
#
#                 Cambridge Crystallographic Data Centre
#                                CCDC 
#
#######################################################################
#
# If this CIF has been generated from an entry in the Cambridge 
# Structural Database, then it will include bibliographic, chemical, 
# crystal, experimental, refinement or atomic coordinate data resulting 
# from the CCDC's data processing and validation procedures.
#
#######################################################################

data_ZIMPES
_symmetry_cell_setting           monoclinic
_symmetry_space_group_name_H-M   'P 21/n'
_symmetry_Int_Tables_number      14
_space_group_name_Hall           '-P 2yn'
loop_
_symmetry_equiv_pos_site_id
_symmetry_equiv_pos_as_xyz
1 x,y,z
2 1/2-x,1/2+y,1/2-z
3 -x,-y,-z
4 1/2+x,1/2-y,1/2+z
_cell_length_a                   9.5705(5)
_cell_length_b                   19.0315(10)
_cell_length_c                   11.3527(6)
_cell_angle_alpha                90
_cell_angle_beta                 91.9410(10)
_cell_angle_gamma                90
_cell_volume                     2066.61
loop_
_atom_site_label
_atom_site_type_symbol
_atom_site_fract_x
_atom_site_fract_y
_atom_site_fract_z
Pb1 Pb 0.309552(12) 0.529780(6) 0.360788(10)
S1 S 0.45775(8) 0.35021(4) 0.49076(7)
O1 O 0.4721(2) 0.42004(11) 0.4390(2)
O2 O 0.5454(3) 0.34361(12) 0.5982(2)
O3 O 0.3138(2) 0.32984(12) 0.5067(2)
O4 O 0.2842(2) 0.11089(13) 0.2952(2)
O5 O 0.4441(3) 0.07456(15) 0.1761(3)
O6 O 0.1371(4) 0.4479(2) 0.4965(4)
H1 H 0.181(5) 0.4088(15) 0.497(5)
H2 H 0.071(3) 0.445(2) 0.545(3)
N1 N 0.4950(3) 0.50732(14) 0.2085(2)
N2 N 0.2549(3) 0.43048(15) 0.2228(3)
C1 C 0.5262(3) 0.28898(15) 0.3885(3)
C2 C 0.4444(3) 0.23045(16) 0.3602(3)
H3 H 0.3569 0.2257 0.3924
C3 C 0.4919(3) 0.17936(16) 0.2846(3)
C4 C 0.6231(3) 0.18730(17) 0.2370(3)
H4 H 0.6561 0.1537 0.1854
C5 C 0.7044(3) 0.24503(18) 0.2664(3)
H5 H 0.7924 0.2491 0.2347
C6 C 0.6594(3) 0.29731(16) 0.3417(3)
C7 C 0.4016(3) 0.11738(17) 0.2504(3)
C8 C 0.7551(4) 0.3588(2) 0.3699(3)
H6 H 0.8337 0.3574 0.3197
H7 H 0.7873 0.3562 0.4508
H8 H 0.7048 0.4020 0.3571
C9 C 0.6100(4) 0.54548(19) 0.1993(3)
H9 H 0.6173 0.5875 0.2409
C10 C 0.7212(4) 0.5250(2) 0.1293(4)
H10 H 0.8005 0.5530 0.1249
C11 C 0.7116(4) 0.4639(2) 0.0685(4)
H11 H 0.7840 0.4502 0.0209
C12 C 0.5922(4) 0.42098(18) 0.0770(3)
C13 C 0.4850(3) 0.44557(16) 0.1485(3)
C14 C 0.3589(3) 0.40477(16) 0.1577(3)
C15 C 0.3477(4) 0.33938(18) 0.0995(3)
C16 C 0.4610(4) 0.3158(2) 0.0300(4)
H12 H 0.4551 0.2721 -0.0065
C17 C 0.5757(4) 0.3556(2) 0.0166(3)
H13 H 0.6450 0.3403 -0.0328
C18 C 0.2265(5) 0.3001(2) 0.1132(4)
H14 H 0.2174 0.2559 0.0790
C19 C 0.1211(5) 0.3274(3) 0.1774(5)
H15 H 0.0388 0.3022 0.1863
C20 C 0.1383(4) 0.3930(2) 0.2294(4)
H16 H 0.0647 0.4117 0.2708
Pb1A Pb 0.190448(12) 0.029780(6) 0.139212(10)
Pb1B Pb 0.690448(12) 0.470220(6) 0.639212(10)
O2B O 0.4546(3) 0.65639(12) 0.4018(2)
O4A O 0.2158(2) 0.61089(13) 0.2048(2)
O5A O 0.0559(3) 0.57456(15) 0.3239(3)
loop_
_geom_bond_atom_site_label_1
_geom_bond_atom_site_label_2
_geom_bond_site_symmetry_1
_geom_bond_site_symmetry_2
Pb1 O1 1_555 1_555
S1 O1 1_555 1_555
O2 S1 1_555 1_555
O3 S1 1_555 1_555
O4 C7 1_555 1_555
O5 C7 1_555 1_555
O6 Pb1 1_555 1_555
H1 O6 1_555 1_555
H2 O6 1_555 1_555
N1 Pb1 1_555 1_555
N2 Pb1 1_555 1_555
C1 S1 1_555 1_555
C2 C1 1_555 1_555
H3 C2 1_555 1_555
C3 C2 1_555 1_555
C4 C3 1_555 1_555
H4 C4 1_555 1_555
C5 C4 1_555 1_555
H5 C5 1_555 1_555
C6 C1 1_555 1_555
C7 C3 1_555 1_555
C8 C6 1_555 1_555
H6 C8 1_555 1_555
H7 C8 1_555 1_555
H8 C8 1_555 1_555
C9 N1 1_555 1_555
H9 C9 1_555 1_555
C10 C9 1_555 1_555
H10 C10 1_555 1_555
C11 C10 1_555 1_555
H11 C11 1_555 1_555
C12 C11 1_555 1_555
C13 N1 1_555 1_555
C14 N2 1_555 1_555
C15 C14 1_555 1_555
C16 C15 1_555 1_555
H12 C16 1_555 1_555
C17 C12 1_555 1_555
H13 C17 1_555 1_555
C18 C15 1_555 1_555
H14 C18 1_555 1_555
C19 C18 1_555 1_555
H15 C19 1_555 1_555
C20 N2 1_555 1_555
H16 C20 1_555 1_555
Pb1A O4 1_555 1_555
Pb1B O2 1_555 1_555
O2B Pb1 1_555 1_555
O4A Pb1 1_555 1_555
O5A Pb1 1_555 1_555
O5 Pb1A 1_555 1_555
C5 C6 1_555 1_555
C12 C13 1_555 1_555
C13 C14 1_555 1_555
C16 C17 1_555 1_555
C19 C20 1_555 1_555

#END
