
#######################################################################
#
#                 Cambridge Crystallographic Data Centre
#                                CCDC 
#
#######################################################################
#
# If this CIF has been generated from an entry in the Cambridge 
# Structural Database, then it will include bibliographic, chemical, 
# crystal, experimental, refinement or atomic coordinate data resulting 
# from the CCDC's data processing and validation procedures.
#
#######################################################################

data_ZIMSEV
_symmetry_cell_setting           monoclinic
_symmetry_space_group_name_H-M   'P 21/c'
_symmetry_Int_Tables_number      14
_space_group_name_Hall           '-P 2ybc'
loop_
_symmetry_equiv_pos_site_id
_symmetry_equiv_pos_as_xyz
1 x,y,z
2 -x,1/2+y,1/2-z
3 -x,-y,-z
4 x,1/2-y,1/2+z
_cell_length_a                   20.0623(9)
_cell_length_b                   7.3315(3)
_cell_length_c                   28.3602(10)
_cell_angle_alpha                90
_cell_angle_beta                 109.6970(10)
_cell_angle_gamma                90
_cell_volume                     3927.33
loop_
_atom_site_label
_atom_site_type_symbol
_atom_site_fract_x
_atom_site_fract_y
_atom_site_fract_z
Gd1 Gd 0.28847(5) 0.12589(16) 0.41071(4)
Gd2 Gd 0.13612(6) 0.36796(16) 0.44412(4)
Gd3 Gd 0.20155(6) -0.12100(16) 0.49103(4)
Gd4 Gd 0.21470(6) -0.36523(16) 0.36735(4)
Gd5 Gd 0.29241(6) -0.10853(16) 0.28442(4)
Gd6 Gd 0.36691(6) 0.38624(16) 0.33207(4)
C1 C 0.0452(13) 0.058(3) 0.4139(10)
C2 C -0.0167(13) -0.074(4) 0.4069(12)
H1 H -0.0223 -0.1461 0.3771
H2 H -0.0594 -0.0022 0.4004
C3 C -0.0114(14) -0.207(4) 0.4505(11)
H3 H 0.0055 -0.1398 0.4817
H4 H -0.0585 -0.2513 0.4466
C4 C 0.0359(11) -0.367(3) 0.4540(7)
C5 C 0.4371(11) 0.231(3) 0.4547(8)
C6 C 0.5178(14) 0.249(4) 0.4805(9)
H5 H 0.5308 0.3768 0.4822
H6 H 0.5307 0.2033 0.5145
C7 C 0.5590(11) 0.145(4) 0.4531(9)
H7 H 0.5392 0.0234 0.4462
H8 H 0.5510 0.2044 0.4211
C8 C 0.6367(14) 0.128(4) 0.4786(10)
C9 C 0.4593(13) 0.696(3) 0.3443(8)
C10 C 0.5197(13) 0.806(4) 0.3405(10)
H9 H 0.5431 0.8633 0.3728
H10 H 0.5535 0.7239 0.3341
C11 C 0.5024(13) 0.951(4) 0.3016(10)
H11 H 0.4746 0.8987 0.2696
H12 H 0.5460 0.9979 0.2984
C12 C 0.4617(11) 1.107(3) 0.3133(8)
C13 C 0.2998(12) 0.272(3) 0.2096(9)
C14 C 0.2735(16) 0.334(4) 0.1558(8)
H13 H 0.3136 0.3509 0.1445
H14 H 0.2502 0.4515 0.1539
C15 C 0.2214(14) 0.199(3) 0.1208(9)
H15 H 0.2456 0.0842 0.1214
H16 H 0.1829 0.1767 0.1335
C16 C 0.1904(11) 0.264(3) 0.0665(8)
C17 C 0.0622(15) 0.538(4) 0.3234(10)
C18 C -0.0197(12) 0.525(4) 0.3064(9)
H17 H -0.0328 0.4629 0.3322
H18 H -0.0392 0.6474 0.3032
C19 C -0.0524(12) 0.426(4) 0.2575(8)
H19 H -0.0315 0.3054 0.2603
H20 H -0.0411 0.4910 0.2314
C20 C -0.1334(14) 0.406(4) 0.2419(10)
O1 O 0.2409(8) 0.184(2) 0.4762(5)
H21 H 0.2758 0.2360 0.5062
O2 O 0.1926(8) -0.090(2) 0.4054(5)
H22 H 0.1466 -0.0375 0.3857
O3 O 0.3084(7) -0.143(2) 0.3708(5)
H23 H 0.3552 -0.1945 0.3888
O4 O 0.2617(8) -0.424(2) 0.2989(5)
H24 H 0.2263 -0.4776 0.2693
O5 O 0.2754(8) 0.177(2) 0.3239(6)
H25 H 0.2292 0.2316 0.3057
O6 O 0.3199(8) 0.458(2) 0.3976(5)
H26 H 0.3553 0.5104 0.4273
O7 O 0.1858(8) 0.314(2) 0.3779(5)
H27 H 0.1511 0.2624 0.3476
O8 O 0.2261(8) 0.592(2) 0.4567(5)
H28 H 0.2728 0.5436 0.4763
O9 O 0.0937(9) 0.058(2) 0.4572(6)
O10 O 0.0459(10) 0.160(3) 0.3805(7)
O11 O 0.1033(9) -0.334(2) 0.4693(6)
O12 O 0.0161(9) -0.529(2) 0.4417(7)
O13 O 0.4146(7) 0.185(2) 0.4094(5)
O14 O 0.3985(8) 0.247(2) 0.4812(6)
O15 O 0.6624(8) 0.121(2) 0.5250(6)
O16 O 0.6769(8) 0.121(3) 0.4527(6)
O17 O 0.4693(10) 0.592(3) 0.3857(7)
O18 O 0.4013(9) 0.695(2) 0.3111(6)
O19 O 0.4843(8) 1.268(2) 0.3218(6)
O20 O 0.3984(9) 1.069(2) 0.3120(5)
O21 O 0.3345(8) 0.380(2) 0.2423(6)
O22 O 0.2838(9) 0.108(3) 0.2195(5)
O23 O 0.1945(9) 0.434(2) 0.0589(5)
O24 O 0.1661(8) 0.144(2) 0.0339(5)
O25 O 0.0948(9) 0.514(3) 0.2961(6)
O26 O 0.0902(8) 0.593(2) 0.3710(5)
O27 O -0.1653(9) 0.413(3) 0.2723(6)
O28 O -0.1667(8) 0.374(3) 0.1947(6)
O29 O 0.3016(9) -0.262(2) 0.2120(6)
H29 H 0.3212 -0.2339 0.1907
H30 H 0.3122 -0.3719 0.2210
O30 O 0.2086(9) -0.304(2) 0.5636(5)
H31 H 0.1849 -0.2839 0.5829
H32 H 0.1989 -0.4111 0.5518
Gd1B Gd 0.71153(5) -0.12589(16) 0.58929(4)
Gd2_2 Gd 0.13612(6) -0.63204(16) 0.44412(4)
Gd2C Gd 0.13612(6) 0.13204(16) -0.05588(4)
Gd3_2 Gd 0.20155(6) 0.87900(16) 0.49103(4)
Gd3B Gd 0.79845(6) 0.12100(16) 0.50897(4)
Gd3C Gd 0.20155(6) 0.62100(16) -0.00897(4)
Gd4_2 Gd 0.21470(6) 0.63477(16) 0.36735(4)
Gd4A Gd -0.21470(6) 0.13477(16) 0.13265(4)
Gd5_2 Gd 0.29241(6) 0.89147(16) 0.28442(4)
Gd5A Gd -0.29241(6) 0.39147(16) 0.21558(4)
Gd6_2 Gd 0.36691(6) -0.61376(16) 0.33207(4)
Gd6_3 Gd 0.36691(6) 1.38624(16) 0.33207(4)
O4_2 O 0.2617(8) 0.576(2) 0.2989(5)
O6_2 O 0.3199(8) -0.542(2) 0.3976(5)
O7_2 O 0.1858(8) -0.686(2) 0.3779(5)
O8_2 O 0.2261(8) -0.408(2) 0.4567(5)
O11_2 O 0.1033(9) 0.666(2) 0.4693(6)
O12_2 O 0.0161(9) 0.471(2) 0.4417(7)
O15B O 0.3376(8) -0.121(2) 0.4750(6)
O16B O 0.3231(8) -0.121(3) 0.5473(6)
O18_2 O 0.4013(9) -0.305(2) 0.3111(6)
O19_2 O 0.4843(8) 0.268(2) 0.3218(6)
O20_2 O 0.3984(9) 0.069(2) 0.3120(5)
O23C O 0.1945(9) 0.066(2) 0.5589(5)
O24C O 0.1661(8) 0.356(2) 0.5339(5)
O25_2 O 0.0948(9) -0.486(3) 0.2961(6)
O26_2 O 0.0902(8) -0.407(2) 0.3710(5)
O27A O 0.1653(9) -0.087(3) 0.2277(6)
O28A O 0.1667(8) -0.126(3) 0.3053(6)
O31 O 0.6336(9) 1.346(3) 0.3618(6)
H33 H 0.5857 1.3261 0.3476
H34 H 0.6500 1.2785 0.3908
O32 O 0.3433(10) 0.420(3) 0.5498(7)
H35 H 0.3751 0.3810 0.5350
H36 H 0.3666 0.4910 0.5771
O33 O 0.1247(11) -0.282(3) 0.6246(8)
H37 H 0.0832 -0.3385 0.6059
H38 H 0.1371 -0.3233 0.6571
O34 O 0.134(2) 0.473(6) 0.2100(16)
O35? O 0.152(3) 0.381(7) 0.2232(17)
loop_
_geom_bond_atom_site_label_1
_geom_bond_atom_site_label_2
_geom_bond_site_symmetry_1
_geom_bond_site_symmetry_2
Gd1 O1 1_555 1_555
Gd2 O1 1_555 1_555
Gd3 O1 1_555 1_555
Gd4 O2 1_555 1_555
Gd5 O3 1_555 1_555
Gd6 O5 1_555 1_555
C1 C2 1_555 1_555
C2 H1 1_555 1_555
H2 C2 1_555 1_555
C3 C2 1_555 1_555
H3 C3 1_555 1_555
H4 C3 1_555 1_555
C4 C3 1_555 1_555
C5 C6 1_555 1_555
C6 H5 1_555 1_555
H6 C6 1_555 1_555
C7 C6 1_555 1_555
H7 C7 1_555 1_555
H8 C7 1_555 1_555
C8 C7 1_555 1_555
C9 C10 1_555 1_555
C10 H9 1_555 1_555
H10 C10 1_555 1_555
C11 C10 1_555 1_555
H11 C11 1_555 1_555
H12 C11 1_555 1_555
C12 C11 1_555 1_555
C13 C14 1_555 1_555
C14 H13 1_555 1_555
H14 C14 1_555 1_555
C15 C14 1_555 1_555
H15 C15 1_555 1_555
H16 C15 1_555 1_555
C16 C15 1_555 1_555
C17 C18 1_555 1_555
C18 H17 1_555 1_555
H18 C18 1_555 1_555
C19 C18 1_555 1_555
H19 C19 1_555 1_555
H20 C19 1_555 1_555
C20 C19 1_555 1_555
O1 H21 1_555 1_555
O2 Gd1 1_555 1_555
H22 O2 1_555 1_555
O3 Gd1 1_555 1_555
H23 O3 1_555 1_555
O4 Gd4 1_555 1_555
H24 O4 1_555 1_555
O5 Gd1 1_555 1_555
H25 O5 1_555 1_555
O6 Gd1 1_555 1_555
H26 O6 1_555 1_555
O7 Gd1 1_555 1_555
H27 O7 1_555 1_555
O8 Gd2 1_555 1_555
H28 O8 1_555 1_555
O9 Gd2 1_555 1_555
O10 Gd2 1_555 1_555
O11 Gd3 1_555 1_555
O12 C4 1_555 1_555
O13 Gd1 1_555 1_555
O14 Gd1 1_555 1_555
O15 C8 1_555 1_555
O16 C8 1_555 1_555
O17 Gd6 1_555 1_555
O18 Gd6 1_555 1_555
O19 C12 1_555 1_555
O20 C12 1_555 1_555
O21 Gd6 1_555 1_555
O22 Gd5 1_555 1_555
O23 C16 1_555 1_555
O24 C16 1_555 1_555
O25 C17 1_555 1_555
O26 Gd2 1_555 1_555
O27 C20 1_555 1_555
O28 C20 1_555 1_555
O29 Gd5 1_555 1_555
H29 O29 1_555 1_555
H30 O29 1_555 1_555
O30 Gd3 1_555 1_555
H31 O30 1_555 1_555
H32 O30 1_555 1_555
O31 H33 1_555 1_555
H34 O31 1_555 1_555
O32 H35 1_555 1_555
H36 O32 1_555 1_555
O33 H37 1_555 1_555
H38 O33 1_555 1_555
Gd1B O15 1_555 1_555
Gd2_2 O11 1_555 1_555
Gd2C O24 1_555 1_555
Gd3_2 O8 1_555 1_555
Gd3B O15 1_555 1_555
Gd3C O23 1_555 1_555
Gd4_2 O6 1_555 1_555
Gd4A O28 1_555 1_555
Gd5_2 O18 1_555 1_555
Gd5A O27 1_555 1_555
Gd6_2 O4 1_555 1_555
Gd6_3 O19 1_555 1_555
O4_2 Gd6 1_555 1_555
O6_2 Gd4 1_555 1_555
O7_2 Gd4 1_555 1_555
O8_2 Gd3 1_555 1_555
O11_2 Gd2 1_555 1_555
O12_2 Gd2 1_555 1_555
O15B Gd1 1_555 1_555
O16B Gd3 1_555 1_555
O18_2 Gd5 1_555 1_555
O19_2 Gd6 1_555 1_555
O20_2 Gd5 1_555 1_555
O23C Gd3 1_555 1_555
O24C Gd2 1_555 1_555
O25_2 Gd4 1_555 1_555
O26_2 Gd4 1_555 1_555
O27A Gd5 1_555 1_555
O28A Gd4 1_555 1_555
Gd2 O7 1_555 1_555
Gd3 O2 1_555 1_555
Gd3 O9 1_555 1_555
Gd3 O15B 1_555 1_555
Gd4 O3 1_555 1_555
Gd4 O8_2 1_555 1_555
Gd5 O4 1_555 1_555
Gd5 O5 1_555 1_555
Gd5 O28A 1_555 1_555
Gd6 O6 1_555 1_555
Gd6 O13 1_555 1_555
Gd6 O20_2 1_555 1_555
C1 O9 1_555 1_555
C1 O10 1_555 1_555
C4 O11 1_555 1_555
C5 O13 1_555 1_555
C5 O14 1_555 1_555
C9 O17 1_555 1_555
C9 O18 1_555 1_555
C13 O21 1_555 1_555
C13 O22 1_555 1_555
C17 O26 1_555 1_555
O7 Gd4_2 1_555 1_555
O8 Gd4_2 1_555 1_555
O12 Gd2_2 1_555 1_555
O16 Gd3B 1_555 1_555
O20 Gd5_2 1_555 1_555
O20 Gd6_3 1_555 1_555
O25 Gd4_2 1_555 1_555
O26 Gd4_2 1_555 1_555
O28 Gd5A 1_555 1_555
Gd2_2 O7_2 1_555 1_555
Gd2_2 O8_2 1_555 1_555
Gd2_2 O26_2 1_555 1_555
Gd3_2 O11_2 1_555 1_555
Gd4_2 O4_2 1_555 1_555
Gd5_2 O4_2 1_555 1_555
Gd6_2 O6_2 1_555 1_555
Gd6_2 O18_2 1_555 1_555

#END
