
#######################################################################
#
#                 Cambridge Crystallographic Data Centre
#                                CCDC 
#
#######################################################################
#
# If this CIF has been generated from an entry in the Cambridge 
# Structural Database, then it will include bibliographic, chemical, 
# crystal, experimental, refinement or atomic coordinate data resulting 
# from the CCDC's data processing and validation procedures.
#
#######################################################################

data_ZIMSIZ
_symmetry_cell_setting           monoclinic
_symmetry_space_group_name_H-M   'C 2/c'
_symmetry_Int_Tables_number      15
_space_group_name_Hall           '-C 2yn'
loop_
_symmetry_equiv_pos_site_id
_symmetry_equiv_pos_as_xyz
1 x,y,z
2 -x,y,1/2-z
3 1/2+x,1/2+y,z
4 1/2-x,1/2+y,1/2-z
5 -x,-y,-z
6 x,-y,1/2+z
7 1/2-x,1/2-y,-z
8 1/2+x,1/2-y,1/2+z
_cell_length_a                   23.0477(15)
_cell_length_b                   7.3085(4)
_cell_length_c                   19.8054(14)
_cell_angle_alpha                90
_cell_angle_beta                 116.141(3)
_cell_angle_gamma                90
_cell_volume                     2994.86
loop_
_atom_site_label
_atom_site_type_symbol
_atom_site_fract_x
_atom_site_fract_y
_atom_site_fract_z
Gd1 Gd 0.067111(15) 0.36384(4) 0.084313(17)
Gd2 Gd 0.085547(14) -0.12649(4) 0.024704(17)
C1 C 0.1492(3) 0.1155(9) 0.2022(4)
C2 C 0.1852(4) -0.0190(9) 0.2655(4)
H1 H 0.2302 0.0179 0.2909
H2 H 0.1675 -0.0115 0.3017
C3 C 0.1822(4) -0.2138(10) 0.2410(5)
H3 H 0.2079 -0.2884 0.2845
H4 H 0.2010 -0.2227 0.2060
C4 C 0.1129(4) -0.2904(9) 0.2033(4)
C5 C 0.0431(4) -0.1736(9) -0.1416(4)
C6 C 0.0330(4) -0.1774(14) -0.2207(5)
H5 H 0.0548 -0.0721 -0.2286
H6 H 0.0543 -0.2857 -0.2273
C7 C 0.1864(3) 0.2456(9) 0.0405(4)
C8 C 0.2432(4) 0.3074(10) 0.0261(5)
H7 H 0.2349 0.4311 0.0064
H8 H 0.2817 0.3110 0.0738
O1 O 0.0245(2) 0.1528(5) -0.0149(3)
H9 H 0.0243 0.2013 -0.0612
O2 O -0.0478(2) 0.4325(5) 0.0162(2)
H10 H -0.0651 0.4804 0.0499
O3 O 0.1212(2) 0.0570(6) 0.1349(3)
O4 O 0.1471(3) 0.2823(6) 0.2166(3)
O5 O 0.0925(3) -0.3379(6) 0.1332(3)
O6 O 0.0815(4) -0.2981(11) 0.2385(4)
O7 O 0.0991(3) -0.1662(8) -0.0899(3)
O8 O -0.0055(3) -0.1728(6) -0.1263(3)
O9 O 0.1647(2) 0.0891(6) 0.0214(3)
O10 O 0.1644(2) 0.3630(6) 0.0710(3)
O11 O 0.1864(2) -0.2755(6) 0.0689(3)
H11 H 0.2261 -0.2456 0.0868
H12 H 0.1840 -0.3911 0.0716
C5A C -0.0431(4) -0.1736(9) -0.3584(4)
C6A C -0.0330(4) -0.1774(14) -0.2793(5)
H5A H -0.0548 -0.0721 -0.2714
H6A H -0.0543 -0.2857 -0.2727
O7A O -0.0991(3) -0.1662(8) -0.4101(3)
O8A O 0.0055(3) -0.1728(6) -0.3737(3)
C7F C 0.3136(3) 0.2544(9) -0.0405(4)
C8F C 0.2568(4) 0.1926(10) -0.0261(5)
H7F H 0.2651 0.0689 -0.0064
H8F H 0.2183 0.1890 -0.0738
O9F O 0.3353(2) 0.4109(6) -0.0214(3)
O10F O 0.3356(2) 0.1370(6) -0.0710(3)
Gd1A Gd -0.067111(15) 0.36384(4) -0.584313(17)
Gd2A Gd -0.085547(14) -0.12649(4) -0.524704(17)
C1A C -0.1492(3) 0.1155(9) -0.7022(4)
C2A C -0.1852(4) -0.0190(9) -0.7655(4)
H1A H -0.2302 0.0179 -0.7909
H2A H -0.1675 -0.0115 -0.8017
C3A C -0.1822(4) -0.2138(10) -0.7410(5)
H3A H -0.2079 -0.2884 -0.7845
H4A H -0.2010 -0.2227 -0.7060
C4A C -0.1129(4) -0.2904(9) -0.7033(4)
O1A O -0.0245(2) 0.1528(5) -0.4851(3)
H9A H -0.0243 0.2013 -0.4388
O2A O 0.0478(2) 0.4325(5) -0.5162(2)
H10A H 0.0651 0.4804 -0.5499
O3A O -0.1212(2) 0.0570(6) -0.6349(3)
O4A O -0.1471(3) 0.2823(6) -0.7166(3)
O5A O -0.0925(3) -0.3379(6) -0.6332(3)
O6A O -0.0815(4) -0.2981(11) -0.7385(4)
O11A O -0.1864(2) -0.2755(6) -0.5689(3)
H11A H -0.2261 -0.2456 -0.5868
H12A H -0.1840 -0.3911 -0.5716
Gd1_2 Gd 0.067111(15) -0.63616(4) 0.084313(17)
Gd1A_2 Gd -0.067111(15) -0.63616(4) -0.584313(17)
Gd1D Gd -0.067111(15) -0.36384(4) -0.084313(17)
Gd1D_2 Gd -0.067111(15) 0.63616(4) -0.084313(17)
Gd1E Gd 0.067111(15) -0.36384(4) -0.415687(17)
Gd1E_2 Gd 0.067111(15) 0.63616(4) -0.415687(17)
Gd1F Gd 0.432889(15) 0.13616(4) -0.084313(17)
Gd2D Gd -0.085547(14) 0.12649(4) -0.024704(17)
Gd2E Gd 0.085547(14) 0.12649(4) -0.475296(17)
Gd2F Gd 0.414453(14) 0.62649(4) -0.024704(17)
O1D O -0.0245(2) -0.1528(5) 0.0149(3)
O1E O 0.0245(2) -0.1528(5) -0.5149(3)
O2D O 0.0478(2) -0.4325(5) -0.0162(2)
O2D_2 O 0.0478(2) 0.5675(5) -0.0162(2)
O2E O -0.0478(2) -0.4325(5) -0.4838(2)
O2E_2 O -0.0478(2) 0.5675(5) -0.4838(2)
O5_2 O 0.0925(3) 0.6621(6) 0.1332(3)
O5A_2 O -0.0925(3) 0.6621(6) -0.6332(3)
O8D O 0.0055(3) 0.1728(6) 0.1263(3)
O8E O -0.0055(3) 0.1728(6) -0.6263(3)
O9A O -0.1647(2) 0.0891(6) -0.5214(3)
O10A O -0.1644(2) 0.3630(6) -0.5710(3)
O12 O 0.1917(3) 0.3602(8) 0.3775(4)
H13 H 0.1805 0.3413 0.3311
H14 H 0.1653 0.3048 0.3896
O13 O -0.0492(4) 0.6517(10) 0.1359(4)
H15 H -0.0856 0.6692 0.1362
H16 H -0.0176 0.6407 0.1792
loop_
_geom_bond_atom_site_label_1
_geom_bond_atom_site_label_2
_geom_bond_site_symmetry_1
_geom_bond_site_symmetry_2
Gd1 O1 1_555 1_555
Gd2 O1 1_555 1_555
C1 C2 1_555 1_555
C2 H1 1_555 1_555
H2 C2 1_555 1_555
C3 C2 1_555 1_555
H3 C3 1_555 1_555
H4 C3 1_555 1_555
C4 C3 1_555 1_555
C5 C6 1_555 1_555
C6 H5 1_555 1_555
H6 C6 1_555 1_555
C7 C8 1_555 1_555
C8 H7 1_555 1_555
H8 C8 1_555 1_555
O1 H9 1_555 1_555
O2 Gd1 1_555 1_555
H10 O2 1_555 1_555
O3 Gd1 1_555 1_555
O4 Gd1 1_555 1_555
O5 Gd2 1_555 1_555
O6 C4 1_555 1_555
O7 Gd2 1_555 1_555
O8 Gd2 1_555 1_555
O9 Gd2 1_555 1_555
O10 Gd1 1_555 1_555
O11 Gd2 1_555 1_555
H11 O11 1_555 1_555
H12 O11 1_555 1_555
O12 H13 1_555 1_555
H14 O12 1_555 1_555
O13 H15 1_555 1_555
H16 O13 1_555 1_555
C5A C6A 1_555 1_555
C6A C6 1_555 1_555
H5A C6A 1_555 1_555
H6A C6A 1_555 1_555
O7A C5A 1_555 1_555
O8A C5A 1_555 1_555
C7F C8F 1_555 1_555
C8F C8 1_555 1_555
H7F C8F 1_555 1_555
H8F C8F 1_555 1_555
O9F C7F 1_555 1_555
O10F C7F 1_555 1_555
Gd1A O1A 1_555 1_555
Gd2A O7A 1_555 1_555
C1A C2A 1_555 1_555
C2A H1A 1_555 1_555
H2A C2A 1_555 1_555
C3A C2A 1_555 1_555
H3A C3A 1_555 1_555
H4A C3A 1_555 1_555
C4A C3A 1_555 1_555
O1A Gd2A 1_555 1_555
H9A O1A 1_555 1_555
O2A Gd1A 1_555 1_555
H10A O2A 1_555 1_555
O3A Gd1A 1_555 1_555
O4A Gd1A 1_555 1_555
O5A Gd2A 1_555 1_555
O6A C4A 1_555 1_555
O11A Gd2A 1_555 1_555
H11A O11A 1_555 1_555
H12A O11A 1_555 1_555
Gd1_2 O5 1_555 1_555
Gd1A_2 O5A 1_555 1_555
Gd1D O8 1_555 1_555
Gd1D_2 O2 1_555 1_555
Gd1E O8A 1_555 1_555
Gd1E_2 O2A 1_555 1_555
Gd1F O10F 1_555 1_555
Gd2D O1 1_555 1_555
Gd2E O1A 1_555 1_555
Gd2F O9F 1_555 1_555
O1D Gd2 1_555 1_555
O1E Gd2A 1_555 1_555
O2D Gd2 1_555 1_555
O2D_2 Gd1 1_555 1_555
O2E Gd2A 1_555 1_555
O2E_2 Gd1A 1_555 1_555
O5_2 Gd1 1_555 1_555
O5A_2 Gd1A 1_555 1_555
O8D Gd1 1_555 1_555
O8E Gd1A 1_555 1_555
O9A Gd2A 1_555 1_555
O10A Gd1A 1_555 1_555
Gd2 O3 1_555 1_555
C1 O3 1_555 1_555
C1 O4 1_555 1_555
C4 O5 1_555 1_555
C5 O7 1_555 1_555
C5 O8 1_555 1_555
C7 O9 1_555 1_555
C7 O10 1_555 1_555
O2 Gd2D 1_555 1_555
O8A Gd2A 1_555 1_555
Gd2A O3A 1_555 1_555
C1A O3A 1_555 1_555
C1A O4A 1_555 1_555
C4A O5A 1_555 1_555
O2A Gd2E 1_555 1_555
Gd1_2 O2D 1_555 1_555
Gd1A_2 O2E 1_555 1_555
Gd1D O1D 1_555 1_555
Gd1D O2D 1_555 1_555
Gd1D_2 O2D_2 1_555 1_555
Gd1E O1E 1_555 1_555
Gd1E O2E 1_555 1_555
Gd1E_2 O2E_2 1_555 1_555
Gd2D O1D 1_555 1_555
Gd2D O8D 1_555 1_555
Gd2E O1E 1_555 1_555
Gd2E O8E 1_555 1_555

#END
