
#######################################################################
#
#                 Cambridge Crystallographic Data Centre
#                                CCDC 
#
#######################################################################
#
# If this CIF has been generated from an entry in the Cambridge 
# Structural Database, then it will include bibliographic, chemical, 
# crystal, experimental, refinement or atomic coordinate data resulting 
# from the CCDC's data processing and validation procedures.
#
#######################################################################

data_ZINJUD
_symmetry_cell_setting           triclinic
_symmetry_space_group_name_H-M   'P -1'
_symmetry_Int_Tables_number      2
_space_group_name_Hall           '-P 1'
loop_
_symmetry_equiv_pos_site_id
_symmetry_equiv_pos_as_xyz
1 x,y,z
2 -x,-y,-z
_cell_length_a                   12.2391(9)
_cell_length_b                   16.2140(9)
_cell_length_c                   18.1327(10)
_cell_angle_alpha                106.807(5)
_cell_angle_beta                 103.456(6)
_cell_angle_gamma                105.134(6)
_cell_volume                     3134.79
loop_
_atom_site_label
_atom_site_type_symbol
_atom_site_fract_x
_atom_site_fract_y
_atom_site_fract_z
Eu1 Eu -0.81833(5) 0.07511(3) -0.45961(3)
Eu2 Eu 0.84623(5) 0.52050(4) 0.45226(3)
P1 P -0.1372(3) 0.15872(19) -0.01103(17)
P2 P 0.0962(3) 0.16759(19) 0.02424(16)
P3 P 0.0358(3) 0.31337(19) -0.00191(17)
O1 O -0.6605(7) 0.1524(5) -0.3194(5)
O2 O -0.6608(8) 0.1481(6) -0.5065(5)
O3 O -0.6394(7) 0.0349(5) -0.4057(4)
O4 O -0.7779(7) 0.2379(5) -0.4062(5)
O5 O -0.2307(8) 0.0855(5) -0.0945(4)
O6 O 0.6718(10) 0.5476(8) 0.4905(6)
O7 O -0.0614(7) 0.4070(5) 0.4222(4)
O8 O 0.8009(9) 0.6353(7) 0.4033(5)
O9 O 0.0646(8) 0.3334(5) 0.4274(4)
O10 O -0.2193(7) 0.1537(5) 0.0464(4)
O11 O 0.7031(7) 0.4435(5) 0.3116(4)
O12 O 0.6730(8) 0.3707(7) 0.3940(5)
O13 O 0.1662(7) 0.1732(5) 0.1111(4)
O14 O 0.1259(7) -0.0359(5) -0.3971(4)
O15 O -0.0698(7) -0.0908(5) -0.4183(4)
O16 O 0.1506(7) 0.1040(5) -0.0287(4)
O17 O 0.0074(7) 0.0861(5) -0.4247(4)
O18 O -0.1847(7) 0.0574(5) -0.4376(4)
O19 O 0.0438(9) 0.3472(5) -0.0748(5)
O20 O 0.1575(7) 0.5354(5) 0.4391(4)
O21 O -0.0037(7) 0.5713(5) 0.3950(4)
O22 O 0.0820(9) 0.4154(5) 0.0598(4)
N1 N -0.0375(8) 0.1172(6) 0.0096(5)
N2 N 0.1292(8) 0.2647(6) 0.0151(5)
N3 N -0.0971(10) 0.2587(6) -0.0122(5)
C1 C -0.6061(9) 0.0958(7) -0.3343(7)
C2 C -0.5028(9) 0.1025(7) -0.2693(6)
C3 C -0.4752(10) 0.1531(8) -0.1906(7)
H1 H -0.5201 0.1893 -0.1759
C4 C -0.3800(12) 0.1537(9) -0.1287(7)
H2 H -0.3590 0.1925 -0.0746
C5 C -0.3199(10) 0.0962(8) -0.1504(7)
C6 C -0.3477(11) 0.0407(8) -0.2313(7)
H3 H -0.3069 0.0008 -0.2454
C7 C -0.4383(10) 0.0456(7) -0.2915(7)
H4 H -0.4554 0.0110 -0.3463
C8 C -0.0227(12) 0.3469(8) 0.3866(7)
C9 C -0.0764(10) 0.2930(7) 0.2964(6)
C10 C -0.1516(11) 0.3229(7) 0.2476(7)
H5 H -0.1710 0.3737 0.2714
C11 C -0.1972(11) 0.2757(8) 0.1632(7)
H6 H -0.2480 0.2944 0.1302
C12 C -0.1674(9) 0.2035(7) 0.1299(6)
C13 C -0.0895(10) 0.1730(7) 0.1772(6)
H7 H -0.0702 0.1225 0.1527
C14 C -0.0428(11) 0.2201(7) 0.2610(7)
H8 H 0.0109 0.2030 0.2933
C15 C 0.6346(12) 0.3813(9) 0.3260(7)
C16 C 0.5170(11) 0.3242(8) 0.2694(7)
C17 C 0.4295(12) 0.2810(10) 0.2945(8)
H9 H 0.4472 0.2857 0.3486
C18 C 0.3109(11) 0.2287(9) 0.2380(7)
H10 H 0.2516 0.1987 0.2550
C19 C 0.2854(9) 0.2229(7) 0.1596(6)
C20 C 0.3692(11) 0.2650(9) 0.1336(7)
H11 H 0.3495 0.2612 0.0796
C21 C 0.4881(10) 0.3156(8) 0.1881(7)
H12 H 0.5470 0.3430 0.1695
C22 C 0.0359(11) -0.0486(7) -0.3727(7)
C23 C 0.0623(10) -0.0100(7) -0.2808(6)
C24 C 0.1821(11) 0.0353(8) -0.2291(7)
H13 H 0.2440 0.0371 -0.2509
C25 C 0.2087(11) 0.0779(8) -0.1446(7)
H14 H 0.2874 0.1120 -0.1103
C26 C 0.1172(10) 0.0682(7) -0.1143(6)
C27 C -0.0037(10) 0.0213(7) -0.1642(7)
H15 H -0.0653 0.0161 -0.1420
C28 C -0.0277(11) -0.0170(8) -0.2482(7)
H16 H -0.1069 -0.0481 -0.2827
C29 C -0.0721(10) 0.1014(7) -0.3974(6)
C30 C -0.0405(10) 0.1694(7) -0.3134(6)
C31 C 0.0142(12) 0.2825(7) -0.1565(6)
C32 C -0.1048(12) 0.2447(8) -0.2063(7)
H17 H -0.1647 0.2577 -0.1868
C33 C -0.1309(12) 0.1883(8) -0.2841(7)
H18 H -0.2102 0.1617 -0.3189
C34 C 0.1058(11) 0.2667(7) -0.1815(6)
H19 H 0.1845 0.2933 -0.1457
C35 C 0.0790(10) 0.2106(8) -0.2606(7)
H20 H 0.1401 0.1997 -0.2797
C36 C 0.0792(10) 0.5419(7) 0.3841(6)
C37 C 0.1502(11) 0.4557(8) 0.2792(7)
H21 H 0.1961 0.4416 0.3191
C38 C 0.0853(10) 0.5112(7) 0.2994(6)
C39 C 0.0190(12) 0.5350(7) 0.2391(6)
H22 H -0.0225 0.5744 0.2530
C40 C 0.0162(13) 0.4994(8) 0.1594(7)
H23 H -0.0293 0.5126 0.1186
C41 C 0.0813(12) 0.4447(7) 0.1420(7)
C42 C 0.1467(11) 0.4208(8) 0.1986(7)
H24 H 0.1882 0.3817 0.1837
Eu1_2 Eu 0.18167(5) 0.07511(3) -0.45961(3)
Eu1A Eu -0.18167(5) -0.07511(3) -0.54039(3)
Eu2_2 Eu -0.15377(5) 0.52050(4) 0.45226(3)
Eu2A Eu 0.15377(5) 0.47950(4) 0.54774(3)
O7_2 O 0.9386(7) 0.4070(5) 0.4222(4)
O7A O 1.0614(7) 0.5930(5) 0.5778(4)
O9A O 0.9354(8) 0.6666(5) 0.5726(4)
O14_2 O -0.8741(7) -0.0359(5) -0.3971(4)
O15A O -0.9302(7) 0.0908(5) -0.5817(4)
O17_2 O -0.9926(7) 0.0861(5) -0.4247(4)
O17A O -1.0074(7) -0.0861(5) -0.5753(4)
O18A O -0.8153(7) -0.0574(5) -0.5624(4)
O20A O 0.8425(7) 0.4646(5) 0.5609(4)
O21_2 O 0.9963(7) 0.5713(5) 0.3950(4)
N4 N -0.6970(10) -0.1505(7) -0.4236(7)
H25 H -0.6443 -0.1112 -0.4323
C43 C -0.6947(13) -0.1515(10) -0.3431(9)
H26 H -0.6293 -0.0990 -0.3018
H27 H -0.6842 -0.2068 -0.3391
H28 H -0.7690 -0.1492 -0.3354
C44 C -0.8099(14) -0.2286(9) -0.4922(10)
H29 H -0.8808 -0.2247 -0.4796
H30 H -0.8039 -0.2874 -0.4955
H31 H -0.8144 -0.2219 -0.5436
N5 N -0.5122(16) 0.3561(10) -0.3519(9)
H32 H -0.5686 0.3251 -0.3982
C45 C -0.4983(15) 0.4448(14) -0.3052(13)
H33 H -0.5648 0.4602 -0.3295
H34 H -0.4249 0.4871 -0.3029
H35 H -0.4955 0.4487 -0.2509
C46 C -0.4331(17) 0.3175(11) -0.3173(11)
H36 H -0.4720 0.2519 -0.3369
H37 H -0.4110 0.3427 -0.2588
H38 H -0.3623 0.3315 -0.3325
O23 O 0.7309(11) 0.7333(9) 0.5788(7)
O24 O -0.7146(13) 0.4492(9) -0.2109(8)
O25 O -0.4124(14) 0.3778(10) -0.4653(9)
O26 O -0.6105(10) 0.3193(7) -0.1896(6)
loop_
_geom_bond_atom_site_label_1
_geom_bond_atom_site_label_2
_geom_bond_site_symmetry_1
_geom_bond_site_symmetry_2
Eu1 O1 1_555 1_555
Eu2 O6 1_555 1_555
P1 O5 1_555 1_555
P2 O13 1_555 1_555
P3 O19 1_555 1_555
O1 C1 1_555 1_555
O2 Eu1 1_555 1_555
O3 Eu1 1_555 1_555
O4 Eu1 1_555 1_555
O5 C5 1_555 1_555
O7 C8 1_555 1_555
O8 Eu2 1_555 1_555
O9 C8 1_555 1_555
O10 P1 1_555 1_555
O11 Eu2 1_555 1_555
O12 Eu2 1_555 1_555
O13 C19 1_555 1_555
O14 C22 1_555 1_555
O15 C22 1_555 1_555
O16 P2 1_555 1_555
O17 C29 1_555 1_555
O18 C29 1_555 1_555
O19 C31 1_555 1_555
O20 C36 1_555 1_555
O21 C36 1_555 1_555
O22 P3 1_555 1_555
N1 P1 1_555 1_555
N2 P2 1_555 1_555
N3 P1 1_555 1_555
C1 O3 1_555 1_555
C2 C1 1_555 1_555
C3 C2 1_555 1_555
H1 C3 1_555 1_555
C4 C3 1_555 1_555
H2 C4 1_555 1_555
C5 C4 1_555 1_555
C6 C5 1_555 1_555
H3 C6 1_555 1_555
C7 C2 1_555 1_555
H4 C7 1_555 1_555
C8 C9 1_555 1_555
C9 C10 1_555 1_555
C10 H5 1_555 1_555
C11 C10 1_555 1_555
H6 C11 1_555 1_555
C12 O10 1_555 1_555
C13 C12 1_555 1_555
H7 C13 1_555 1_555
C14 C9 1_555 1_555
H8 C14 1_555 1_555
C15 O11 1_555 1_555
C16 C15 1_555 1_555
C17 C16 1_555 1_555
H9 C17 1_555 1_555
C18 C17 1_555 1_555
H10 C18 1_555 1_555
C19 C18 1_555 1_555
C20 C19 1_555 1_555
H11 C20 1_555 1_555
C21 C16 1_555 1_555
H12 C21 1_555 1_555
C22 C23 1_555 1_555
C23 C24 1_555 1_555
C24 H13 1_555 1_555
C25 C24 1_555 1_555
H14 C25 1_555 1_555
C26 O16 1_555 1_555
C27 C26 1_555 1_555
H15 C27 1_555 1_555
C28 C23 1_555 1_555
H16 C28 1_555 1_555
C29 C30 1_555 1_555
C30 C33 1_555 1_555
C31 C32 1_555 1_555
C32 H17 1_555 1_555
C33 C32 1_555 1_555
H18 C33 1_555 1_555
C34 C31 1_555 1_555
H19 C34 1_555 1_555
C35 C30 1_555 1_555
H20 C35 1_555 1_555
C36 C38 1_555 1_555
C37 H21 1_555 1_555
C38 C37 1_555 1_555
C39 C38 1_555 1_555
H22 C39 1_555 1_555
C40 C39 1_555 1_555
H23 C40 1_555 1_555
C41 O22 1_555 1_555
C42 C37 1_555 1_555
H24 C42 1_555 1_555
N4 H25 1_555 1_555
C43 N4 1_555 1_555
H26 C43 1_555 1_555
H27 C43 1_555 1_555
H28 C43 1_555 1_555
C44 N4 1_555 1_555
H29 C44 1_555 1_555
H30 C44 1_555 1_555
H31 C44 1_555 1_555
N5 H32 1_555 1_555
C45 N5 1_555 1_555
H33 C45 1_555 1_555
H34 C45 1_555 1_555
H35 C45 1_555 1_555
C46 N5 1_555 1_555
H36 C46 1_555 1_555
H37 C46 1_555 1_555
H38 C46 1_555 1_555
Eu1_2 O14 1_555 1_555
Eu1A O15 1_555 1_555
Eu2_2 O7 1_555 1_555
Eu2A O7 1_555 1_555
O7_2 Eu2 1_555 1_555
O7A Eu2 1_555 1_555
O9A Eu2 1_555 1_555
O14_2 Eu1 1_555 1_555
O15A Eu1 1_555 1_555
O17_2 Eu1 1_555 1_555
O17A Eu1 1_555 1_555
O18A Eu1 1_555 1_555
O20A Eu2 1_555 1_555
O21_2 Eu2 1_555 1_555
P2 N1 1_555 1_555
P3 N2 1_555 1_555
P3 N3 1_555 1_555
O9 Eu2A 1_555 1_555
O12 C15 1_555 1_555
O17 Eu1_2 1_555 1_555
O17 Eu1A 1_555 1_555
O18 Eu1A 1_555 1_555
O20 Eu2A 1_555 1_555
O21 Eu2_2 1_555 1_555
C6 C7 1_555 1_555
C11 C12 1_555 1_555
C13 C14 1_555 1_555
C20 C21 1_555 1_555
C25 C26 1_555 1_555
C27 C28 1_555 1_555
C34 C35 1_555 1_555
C40 C41 1_555 1_555
C41 C42 1_555 1_555

#END
