
#######################################################################
#
#                 Cambridge Crystallographic Data Centre
#                                CCDC 
#
#######################################################################
#
# If this CIF has been generated from an entry in the Cambridge 
# Structural Database, then it will include bibliographic, chemical, 
# crystal, experimental, refinement or atomic coordinate data resulting 
# from the CCDC's data processing and validation procedures.
#
#######################################################################

data_ZINMIU
_symmetry_cell_setting           monoclinic
_symmetry_space_group_name_H-M   'P 21/c'
_symmetry_Int_Tables_number      14
_space_group_name_Hall           '-P 2ybc'
loop_
_symmetry_equiv_pos_site_id
_symmetry_equiv_pos_as_xyz
1 x,y,z
2 -x,1/2+y,1/2-z
3 -x,-y,-z
4 x,1/2-y,1/2+z
_cell_length_a                   14.4065(11)
_cell_length_b                   17.7616(13)
_cell_length_c                   14.0776(10)
_cell_angle_alpha                90
_cell_angle_beta                 97.6380(10)
_cell_angle_gamma                90
_cell_volume                     3570.25
loop_
_atom_site_label
_atom_site_type_symbol
_atom_site_fract_x
_atom_site_fract_y
_atom_site_fract_z
Cd1 Cd 0.866895(13) 0.186660(10) 0.413142(14)
Cd2 Cd 0.569184(13) 0.168581(12) 0.339471(16)
N1 N 0.88274(14) 0.12318(12) 0.56104(16)
N2 N 0.85087(16) 0.05536(12) 0.38875(16)
N3 N 0.61123(15) 0.10631(14) 0.48471(18)
N4 N 0.57480(18) 0.03817(16) 0.3124(2)
N5 N 1.15158(18) 0.19519(13) 0.01057(17)
H1 H 1.0931 0.1992 -0.0215
O1 O 0.93569(13) 0.19457(12) 0.26623(15)
O2 O 1.02845(14) 0.18152(12) 0.40187(14)
O3 O 1.43019(15) 0.18433(15) 0.2608(2)
O4 O 1.38007(15) 0.19123(13) 0.40289(18)
O5 O 1.08603(15) -0.19076(11) 0.03248(17)
O6 O 1.23271(15) -0.21484(12) 0.0208(2)
O7 O 0.72614(14) 0.18735(13) 0.31077(17)
O8 O 0.62263(16) 0.19028(14) 0.18276(18)
O9 O 0.58893(14) 0.28698(12) 0.4013(2)
H2 H 0.6541 0.2904 0.4329
H3 H 0.5368 0.2904 0.4398
C1 C 1.16500(18) 0.19003(14) 0.10999(19)
C2 C 1.08826(17) 0.19181(14) 0.16110(19)
H4 H 1.0280 0.1937 0.1279
C3 C 1.10026(17) 0.19079(14) 0.26017(19)
C4 C 1.19053(17) 0.18907(14) 0.3111(2)
H5 H 1.1991 0.1890 0.3777
C5 C 1.26714(17) 0.18744(14) 0.2608(2)
C6 C 1.25425(18) 0.18674(15) 0.1624(2)
H6 H 1.3063 0.1840 0.1299
C7 C 1.01591(17) 0.18916(14) 0.3129(2)
C8 C 1.3659(2) 0.18781(16) 0.3136(3)
C9 C 1.2098(2) 0.15097(15) -0.0455(2)
H7 H 1.2747 0.1658 -0.0282
H8 H 1.1924 0.1626 -0.1128
C10 C 1.20196(19) 0.06694(15) -0.03164(19)
C11 C 1.2772(2) 0.02278(18) -0.0014(3)
H9 H 1.3366 0.0442 0.0097
C12 C 1.2667(2) -0.05340(18) 0.0129(3)
H10 H 1.3193 -0.0824 0.0339
C13 C 1.18006(18) -0.08758(15) -0.0032(2)
C14 C 1.1052(2) -0.04331(17) -0.0367(3)
H11 H 1.0460 -0.0648 -0.0502
C15 C 1.1162(2) 0.03269(18) -0.0505(3)
H12 H 1.0641 0.0616 -0.0733
C16 C 1.1659(2) -0.16891(15) 0.0175(2)
C17 C 0.8972(2) 0.15857(17) 0.6453(2)
H13 H 0.8965 0.2109 0.6454
C18 C 0.9130(2) 0.1219(2) 0.7317(2)
H14 H 0.9223 0.1486 0.7890
C19 C 0.9149(2) 0.0444(2) 0.7308(2)
H15 H 0.9248 0.0177 0.7881
C20 C 0.9019(2) 0.00698(18) 0.6450(2)
H16 H 0.9045 -0.0453 0.6434
C21 C 0.88473(17) 0.04792(14) 0.5601(2)
C22 C 0.86643(17) 0.01032(15) 0.46517(19)
C23 C 0.8638(2) -0.06735(16) 0.4552(2)
H17 H 0.8758 -0.0983 0.5087
C24 C 0.8431(3) -0.09812(18) 0.3649(3)
H18 H 0.8409 -0.1501 0.3568
C25 C 0.8261(3) -0.05198(19) 0.2884(3)
H19 H 0.8107 -0.0716 0.2271
C26 C 0.8320(2) 0.02458(18) 0.3026(2)
H20 H 0.8224 0.0561 0.2494
C27 C 0.6300(2) 0.1417(2) 0.5689(2)
H21 H 0.6262 0.1939 0.5698
C28 C 0.6548(2) 0.1047(2) 0.6543(3)
H22 H 0.6669 0.1312 0.7116
C29 C 0.6609(3) 0.0286(2) 0.6527(3)
H23 H 0.6776 0.0021 0.7093
C30 C 0.6426(2) -0.0091(2) 0.5673(3)
H24 H 0.6471 -0.0613 0.5658
C31 C 0.61753(18) 0.03076(17) 0.4834(2)
C32 C 0.59641(19) -0.00647(17) 0.3888(3)
C33 C 0.5979(2) -0.0841(2) 0.3780(3)
H25 H 0.6125 -0.1151 0.4312
C34 C 0.5776(3) -0.1150(2) 0.2882(4)
H26 H 0.5786 -0.1670 0.2802
C35 C 0.5562(3) -0.0693(3) 0.2114(4)
H27 H 0.5420 -0.0894 0.1502
C36 C 0.5559(3) 0.0075(2) 0.2257(3)
H28 H 0.5419 0.0389 0.1729
C37 C 0.7043(2) 0.19366(19) 0.2217(3)
H29 H 0.7516 0.2012 0.1838
Cd1A Cd 1.133105(13) -0.313340(10) 0.086858(14)
Cd2_2 Cd 1.569184(13) 0.168581(12) 0.339471(16)
O3_2 O 0.43019(15) 0.18433(15) 0.2608(2)
O5A O 0.91397(15) 0.30924(11) 0.46752(17)
O6A O 0.76729(15) 0.28516(12) 0.4792(2)
O10 O 0.46191(19) 0.31126(17) 0.5241(2)
H30 H 0.4821 0.3397 0.5714
H31 H 0.4338 0.2699 0.5297
loop_
_geom_bond_atom_site_label_1
_geom_bond_atom_site_label_2
_geom_bond_site_symmetry_1
_geom_bond_site_symmetry_2
Cd1 N1 1_555 1_555
Cd2 N3 1_555 1_555
N1 C17 1_555 1_555
N2 Cd1 1_555 1_555
N3 C27 1_555 1_555
N4 Cd2 1_555 1_555
N5 H1 1_555 1_555
O1 Cd1 1_555 1_555
O2 Cd1 1_555 1_555
O3 C8 1_555 1_555
O4 C8 1_555 1_555
O5 C16 1_555 1_555
O6 C16 1_555 1_555
O7 Cd1 1_555 1_555
O8 Cd2 1_555 1_555
O9 Cd2 1_555 1_555
H2 O9 1_555 1_555
H3 O9 1_555 1_555
C1 N5 1_555 1_555
C2 C1 1_555 1_555
H4 C2 1_555 1_555
C3 C2 1_555 1_555
C4 C3 1_555 1_555
H5 C4 1_555 1_555
C5 C4 1_555 1_555
C6 C1 1_555 1_555
H6 C6 1_555 1_555
C7 O1 1_555 1_555
C8 C5 1_555 1_555
C9 N5 1_555 1_555
H7 C9 1_555 1_555
H8 C9 1_555 1_555
C10 C9 1_555 1_555
C11 C10 1_555 1_555
H9 C11 1_555 1_555
C12 C11 1_555 1_555
H10 C12 1_555 1_555
C13 C12 1_555 1_555
C14 C13 1_555 1_555
H11 C14 1_555 1_555
C15 C10 1_555 1_555
H12 C15 1_555 1_555
C16 C13 1_555 1_555
C17 H13 1_555 1_555
C18 C17 1_555 1_555
H14 C18 1_555 1_555
C19 C18 1_555 1_555
H15 C19 1_555 1_555
C20 C19 1_555 1_555
H16 C20 1_555 1_555
C21 N1 1_555 1_555
C22 N2 1_555 1_555
C23 C22 1_555 1_555
H17 C23 1_555 1_555
C24 C23 1_555 1_555
H18 C24 1_555 1_555
C25 C24 1_555 1_555
H19 C25 1_555 1_555
C26 N2 1_555 1_555
H20 C26 1_555 1_555
C27 H21 1_555 1_555
C28 C27 1_555 1_555
H22 C28 1_555 1_555
C29 C28 1_555 1_555
H23 C29 1_555 1_555
C30 C29 1_555 1_555
H24 C30 1_555 1_555
C31 N3 1_555 1_555
C32 N4 1_555 1_555
C33 C32 1_555 1_555
H25 C33 1_555 1_555
C34 C33 1_555 1_555
H26 C34 1_555 1_555
C35 C34 1_555 1_555
H27 C35 1_555 1_555
C36 N4 1_555 1_555
H28 C36 1_555 1_555
C37 O7 1_555 1_555
H29 C37 1_555 1_555
O10 H30 1_555 1_555
H31 O10 1_555 1_555
Cd1A O5 1_555 1_555
Cd2_2 O3 1_555 1_555
O3_2 Cd2 1_555 1_555
O5A Cd1 1_555 1_555
O6A Cd1 1_555 1_555
Cd2 O7 1_555 1_555
O2 C7 1_555 1_555
O6 Cd1A 1_555 1_555
O8 C37 1_555 1_555
C3 C7 1_555 1_555
C5 C6 1_555 1_555
C14 C15 1_555 1_555
C20 C21 1_555 1_555
C21 C22 1_555 1_555
C25 C26 1_555 1_555
C30 C31 1_555 1_555
C31 C32 1_555 1_555
C35 C36 1_555 1_555

#END
