
#######################################################################
#
#                 Cambridge Crystallographic Data Centre
#                                CCDC 
#
#######################################################################
#
# If this CIF has been generated from an entry in the Cambridge 
# Structural Database, then it will include bibliographic, chemical, 
# crystal, experimental, refinement or atomic coordinate data resulting 
# from the CCDC's data processing and validation procedures.
#
#######################################################################

data_ZINPAP
_symmetry_cell_setting           monoclinic
_symmetry_space_group_name_H-M   'P 21/c'
_symmetry_Int_Tables_number      14
_space_group_name_Hall           '-P 2ybc'
loop_
_symmetry_equiv_pos_site_id
_symmetry_equiv_pos_as_xyz
1 x,y,z
2 -x,1/2+y,1/2-z
3 -x,-y,-z
4 x,1/2-y,1/2+z
_cell_length_a                   18.3857(9)
_cell_length_b                   16.2180(6)
_cell_length_c                   14.4062(7)
_cell_angle_alpha                90
_cell_angle_beta                 90.011(3)
_cell_angle_gamma                90
_cell_volume                     4295.63
loop_
_atom_site_label
_atom_site_type_symbol
_atom_site_fract_x
_atom_site_fract_y
_atom_site_fract_z
Zn1 Zn 0.25596(11) 0.12765(6) 0.90994(8)
Zn2 Zn 0.25210(11) 0.24512(6) 1.08183(7)
Zn3 Zn 0.33992(9) 0.29482(10) 0.90138(18)
Zn4 Zn 0.16486(9) 0.29073(10) 0.90296(18)
O1 O 0.2545(6) 0.2419(3) 0.9475(4)
O2 O 0.2559(7) 0.4502(4) 0.5110(5)
O3 O 0.2588(6) 0.3657(4) 0.6353(4)
O4 O 0.3370(6) 0.3929(7) 1.3241(9)
O5 O 0.3958(5) 0.2725(7) 1.3180(9)
O6 O 0.1739(6) 0.3975(6) 1.3272(9)
O7 O 0.1089(5) 0.2789(7) 1.3161(10)
O8 O 0.3377(5) 0.3086(7) 1.1269(8)
O9 O 0.3999(5) 0.3428(7) 1.0001(10)
O10 O 0.3111(6) 0.3940(7) 0.8278(10)
O11 O 0.1887(5) 0.3857(7) 0.8260(10)
O12 O 0.1124(6) 0.3471(7) 0.9975(10)
O13 O 0.1739(5) 0.3168(7) 1.1303(8)
C1 C 0.2549(9) 0.4364(5) 0.5968(7)
C2 C 0.3836(9) 0.3485(12) 1.2953(14)
C3 C 0.1199(8) 0.3503(11) 1.2998(13)
C4 C 0.3906(7) 0.3404(9) 1.0848(16)
C5 C 0.2494(9) 0.4189(5) 0.8057(6)
C6 C 0.1227(8) 0.3485(8) 1.0860(16)
C7 C 0.4481(7) 0.3824(10) 1.1398(12)
C8 C 0.4433(8) 0.3891(11) 1.2378(14)
C9 C 0.4984(9) 0.4317(12) 1.2863(14)
H1 H 0.4955 0.4349 1.3521
C10 C 0.5549(9) 0.4681(11) 1.2433(14)
H2 H 0.5913 0.4963 1.2775
C11 C 0.5581(9) 0.4630(12) 1.1478(14)
H3 H 0.5975 0.4875 1.1153
C12 C 0.5049(8) 0.4229(9) 1.1002(16)
H4 H 0.5076 0.4232 1.0344
C13 C 0.2489(11) 0.5006(5) 0.7546(6)
C14 C 0.2416(8) 0.5693(6) 0.8121(7)
H5 H 0.2367 0.5626 0.8774
C15 C 0.2416(9) 0.6487(6) 0.7723(8)
H6 H 0.2364 0.6961 0.8104
C16 C 0.2491(11) 0.6569(6) 0.6772(7)
H7 H 0.2530 0.7102 0.6503
C17 C 0.2510(11) 0.5879(5) 0.6217(6)
H8 H 0.2517 0.5940 0.5561
C18 C 0.2520(9) 0.5103(5) 0.6601(6)
C19 C 0.0634(7) 0.3925(10) 1.1431(12)
C20 C 0.0045(8) 0.4290(9) 1.0914(16)
H9 H 0.0025 0.4248 1.0257
C21 C -0.0495(9) 0.4709(10) 1.1411(14)
H10 H -0.0876 0.4984 1.1090
C22 C -0.0473(9) 0.4720(11) 1.2370(16)
H11 H -0.0850 0.4986 1.2708
C23 C 0.0109(8) 0.4339(10) 1.2854(15)
H12 H 0.0123 0.4372 1.3513
C24 C 0.0638(9) 0.3934(11) 1.2407(14)
Zn1C Zn 0.25596(11) 0.37235(6) 0.40994(8)
Zn1C_2 Zn 0.25596(11) 0.37235(6) 1.40994(8)
Zn2C Zn 0.25210(11) 0.25488(6) 0.58183(7)
Zn3C Zn 0.33992(9) 0.20518(10) 1.40138(18)
Zn4C Zn 0.16486(9) 0.20927(10) 1.40296(18)
O2C O 0.2559(7) 0.0498(4) 1.0110(5)
O3C O 0.2588(6) 0.1343(4) 1.1353(4)
O4C O 0.3370(6) 0.1071(7) 0.8241(9)
O5C O 0.3958(5) 0.2275(7) 0.8180(9)
O6C O 0.1739(6) 0.1025(6) 0.8272(9)
O7C O 0.1089(5) 0.2211(7) 0.8161(10)
O14 O 0.1226(6) 0.1655(7) 1.0260(9)
N1 N 0.0125(5) 0.1714(8) 1.1017(9)
C25 C 0.0841(7) 0.1623(10) 1.0985(13)
H13 H 0.1085 0.1524 1.1555
C26 C -0.0249(8) 0.1645(10) 1.1892(12)
H14 H 0.0116 0.1596 1.2394
H15 H -0.0542 0.1133 1.1889
C27 C -0.0744(9) 0.2366(11) 1.2107(13)
H16 H -0.0976 0.2279 1.2712
H17 H -0.1119 0.2409 1.1626
H18 H -0.0458 0.2876 1.2123
C28 C -0.0301(8) 0.1831(10) 1.0166(10)
H19 H 0.0035 0.1880 0.9631
H20 H -0.0579 0.2351 1.0213
C29 C -0.0829(10) 0.1116(12) 0.9992(16)
H21 H -0.1108 0.1223 0.9424
H22 H -0.1163 0.1065 1.0519
H23 H -0.0554 0.0602 0.9920
O15 O 0.4068(7) 0.1404(8) 1.0193(10)
N2 N 0.5060(7) 0.1437(9) 1.1147(10)
C30 C 0.4354(7) 0.1489(11) 1.0981(11)
H24 H 0.4042 0.1597 1.1492
C31 C 0.5339(8) 0.1544(10) 1.2071(11)
H25 H 0.5596 0.1034 1.2257
H26 H 0.4924 0.1620 1.2501
C32 C 0.5856(10) 0.2271(11) 1.2181(19)
H27 H 0.6025 0.2301 1.2826
H28 H 0.5603 0.2783 1.2020
H29 H 0.6275 0.2198 1.1768
C33 C 0.5606(9) 0.1178(12) 1.0454(12)
H30 H 0.5413 0.0711 1.0086
H31 H 0.6052 0.0989 1.0776
C34 C 0.5793(11) 0.1886(13) 0.9811(15)
H32 H 0.6159 0.1704 0.9360
H33 H 0.5987 0.2347 1.0174
H34 H 0.5354 0.2064 0.9481
O16 O 0.1782(9) 0.8138(10) 0.4906(9)
N3 N 0.2146(7) 0.8970(11) 0.6100(11)
C35 C 0.1635(9) 0.8582(12) 0.5606(13)
H35 H 0.1141 0.8642 0.5787
C36 C 0.2904(7) 0.8867(9) 0.5857(16)
H36 H 0.2944 0.8547 0.5274
H37 H 0.3157 0.8557 0.6353
C37 C 0.3259(12) 0.9706(11) 0.5733(14)
H38 H 0.3774 0.9633 0.5577
H39 H 0.3217 1.0021 0.6311
H40 H 0.3014 1.0005 0.5230
C38 C 0.1994(9) 0.9454(11) 0.6926(11)
H41 H 0.1460 0.9494 0.7000
H42 H 0.2181 1.0020 0.6826
C39 C 0.2315(8) 0.9126(8) 0.7830(9)
H43 H 0.2183 0.9495 0.8341
H44 H 0.2845 0.9098 0.7776
H45 H 0.2121 0.8574 0.7953
loop_
_geom_bond_atom_site_label_1
_geom_bond_atom_site_label_2
_geom_bond_site_symmetry_1
_geom_bond_site_symmetry_2
Zn1 O1 1_555 1_555
Zn2 O1 1_555 1_555
Zn3 O1 1_555 1_555
Zn4 O1 1_555 1_555
O2 C1 1_555 1_555
O3 C1 1_555 1_555
O4 C2 1_555 1_555
O5 C2 1_555 1_555
O6 C3 1_555 1_555
O7 C3 1_555 1_555
O8 Zn2 1_555 1_555
O9 Zn3 1_555 1_555
O10 Zn3 1_555 1_555
O11 Zn4 1_555 1_555
O12 Zn4 1_555 1_555
O13 Zn2 1_555 1_555
C1 C18 1_555 1_555
C2 C8 1_555 1_555
C3 C24 1_555 1_555
C4 O8 1_555 1_555
C5 O10 1_555 1_555
C6 O12 1_555 1_555
C7 C4 1_555 1_555
C8 C7 1_555 1_555
C9 C8 1_555 1_555
H1 C9 1_555 1_555
C10 C9 1_555 1_555
H2 C10 1_555 1_555
C11 C10 1_555 1_555
H3 C11 1_555 1_555
C12 C7 1_555 1_555
H4 C12 1_555 1_555
C13 C5 1_555 1_555
C14 C13 1_555 1_555
H5 C14 1_555 1_555
C15 C14 1_555 1_555
H6 C15 1_555 1_555
C16 C15 1_555 1_555
H7 C16 1_555 1_555
C17 C16 1_555 1_555
H8 C17 1_555 1_555
C18 C13 1_555 1_555
C19 C6 1_555 1_555
C20 C19 1_555 1_555
H9 C20 1_555 1_555
C21 C20 1_555 1_555
H10 C21 1_555 1_555
C22 C21 1_555 1_555
H11 C22 1_555 1_555
C23 C22 1_555 1_555
H12 C23 1_555 1_555
C24 C19 1_555 1_555
O14 C25 1_555 1_555
N1 C25 1_555 1_555
C25 H13 1_555 1_555
C26 N1 1_555 1_555
H14 C26 1_555 1_555
H15 C26 1_555 1_555
C27 C26 1_555 1_555
H16 C27 1_555 1_555
H17 C27 1_555 1_555
H18 C27 1_555 1_555
C28 N1 1_555 1_555
H19 C28 1_555 1_555
H20 C28 1_555 1_555
C29 C28 1_555 1_555
H21 C29 1_555 1_555
H22 C29 1_555 1_555
H23 C29 1_555 1_555
O15 C30 1_555 1_555
N2 C30 1_555 1_555
C30 H24 1_555 1_555
C31 N2 1_555 1_555
H25 C31 1_555 1_555
H26 C31 1_555 1_555
C32 C31 1_555 1_555
H27 C32 1_555 1_555
H28 C32 1_555 1_555
H29 C32 1_555 1_555
C33 N2 1_555 1_555
H30 C33 1_555 1_555
H31 C33 1_555 1_555
C34 C33 1_555 1_555
H32 C34 1_555 1_555
H33 C34 1_555 1_555
H34 C34 1_555 1_555
O16 C35 1_555 1_555
N3 C35 1_555 1_555
C35 H35 1_555 1_555
C36 N3 1_555 1_555
H36 C36 1_555 1_555
H37 C36 1_555 1_555
C37 C36 1_555 1_555
H38 C37 1_555 1_555
H39 C37 1_555 1_555
H40 C37 1_555 1_555
C38 N3 1_555 1_555
H41 C38 1_555 1_555
H42 C38 1_555 1_555
C39 C38 1_555 1_555
H43 C39 1_555 1_555
H44 C39 1_555 1_555
H45 C39 1_555 1_555
Zn1C O2 1_555 1_555
Zn1C_2 O4 1_555 1_555
Zn2C O3 1_555 1_555
Zn3C O5 1_555 1_555
Zn4C O7 1_555 1_555
O2C Zn1 1_555 1_555
O3C Zn2 1_555 1_555
O4C Zn1 1_555 1_555
O5C Zn3 1_555 1_555
O6C Zn1 1_555 1_555
O7C Zn4 1_555 1_555
O6 Zn1C_2 1_555 1_555
O9 C4 1_555 1_555
O11 C5 1_555 1_555
O13 C6 1_555 1_555
C11 C12 1_555 1_555
C17 C18 1_555 1_555
C23 C24 1_555 1_555

#END
