
#######################################################################
#
#                 Cambridge Crystallographic Data Centre
#                                CCDC 
#
#######################################################################
#
# If this CIF has been generated from an entry in the Cambridge 
# Structural Database, then it will include bibliographic, chemical, 
# crystal, experimental, refinement or atomic coordinate data resulting 
# from the CCDC's data processing and validation procedures.
#
#######################################################################

data_ZINVEZ
_symmetry_cell_setting           triclinic
_symmetry_space_group_name_H-M   'P -1'
_symmetry_Int_Tables_number      2
_space_group_name_Hall           '-P 1'
loop_
_symmetry_equiv_pos_site_id
_symmetry_equiv_pos_as_xyz
1 x,y,z
2 -x,-y,-z
_cell_length_a                   12.748(5)
_cell_length_b                   13.227(5)
_cell_length_c                   14.460(5)
_cell_angle_alpha                103.344(4)
_cell_angle_beta                 109.689(4)
_cell_angle_gamma                97.861(4)
_cell_volume                     2171.58
loop_
_atom_site_label
_atom_site_type_symbol
_atom_site_fract_x
_atom_site_fract_y
_atom_site_fract_z
Er1 Er 0.952606(8) -0.657187(7) -0.927554(7)
Cu1 Cu 0.66166(4) 0.09309(4) -0.43481(3)
Cu2 Cu 0.55321(3) -0.22420(3) -0.31081(3)
Cl1 Cl 0.53916(8) -0.09341(6) -0.41485(6)
O1 O 1.14982(16) -0.66526(15) -0.91351(15)
O2 O 1.02104(16) -0.81316(14) -0.95559(15)
O3 O 1.03638(15) -0.48241(14) -0.83599(13)
O4 O 1.04962(17) -0.36960(15) -0.92548(14)
O5 O 0.79398(15) -0.59387(15) -0.93852(14)
O6 O 0.63062(17) -0.72078(17) -1.00950(17)
O7 O 0.95571(18) -0.68743(17) -0.78209(14)
O8 O 1.0097(3) -0.7626(2) -0.65730(19)
O9 O 0.79990(17) -0.79822(16) -1.03653(17)
H1 H 0.738(2) -0.785(3) -1.042(3)
H2 H 0.793(3) -0.845(2) -1.089(2)
C1 C 0.7638(3) 0.0388(3) -0.5843(2)
H3 H 0.7317 0.0908 -0.6094
C2 C 0.8202(3) -0.0185(2) -0.6366(2)
H4 H 0.8259 -0.0040 -0.6949
C3 C 0.8682(2) -0.0977(2) -0.60221(18)
C4 C 0.8599(3) -0.1110(3) -0.5124(2)
H5 H 0.8930 -0.1610 -0.4843
C5 C 0.8026(3) -0.0502(3) -0.4645(2)
H6 H 0.7982 -0.0611 -0.4045
C6 C 0.9200(2) -0.16865(19) -0.66110(17)
C7 C 0.9591(2) -0.1391(2) -0.7323(2)
H7 H 0.9586 -0.0712 -0.7400
C8 C 0.9990(2) -0.2101(2) -0.79232(19)
H8 H 1.0244 -0.1894 -0.8399
C9 C 1.00087(19) -0.31120(19) -0.78142(17)
C10 C 0.9675(2) -0.3389(2) -0.7069(2)
H9 H 0.9724 -0.4051 -0.6963
C11 C 0.9269(2) -0.2684(2) -0.6480(2)
H10 H 0.9039 -0.2885 -0.5990
C12 C 1.03105(19) -0.39400(19) -0.85305(17)
C13 C 0.4821(3) -0.1618(3) -0.6640(3)
H11 H 0.5237 -0.0916 -0.6294
C14 C 0.5301(3) -0.2306(3) -0.7144(3)
H12 H 0.6031 -0.2066 -0.7125
C15 C 0.4713(2) -0.3351(2) -0.76785(19)
C16 C 0.3617(2) -0.3643(3) -0.7686(2)
H13 H 0.3169 -0.4331 -0.8050
C17 C 0.3200(3) -0.2908(3) -0.7151(2)
H14 H 0.2470 -0.3124 -0.7160
C18 C 0.5255(2) -0.4113(2) -0.81831(18)
C19 C 0.6213(2) -0.3734(2) -0.8377(2)
H15 H 0.6500 -0.3002 -0.8205
C20 C 0.6735(2) -0.4432(2) -0.8822(2)
H16 H 0.7375 -0.4167 -0.8942
C21 C 0.6314(2) -0.5527(2) -0.90925(18)
C22 C 0.5375(2) -0.5903(2) -0.8889(2)
H17 H 0.5091 -0.6636 -0.9060
C23 C 0.4850(2) -0.5205(2) -0.8436(2)
H18 H 0.4222 -0.5472 -0.8300
C24 C 0.6886(2) -0.6293(2) -0.95677(19)
C25 C 0.5763(3) -0.3563(3) -0.4842(2)
H19 H 0.5183 -0.3278 -0.5201
C26 C 0.6225(3) -0.4231(3) -0.5388(2)
H20 H 0.5942 -0.4403 -0.6102
C27 C 0.7112(2) -0.4653(2) -0.48802(19)
C28 C 0.7440(3) -0.4406(2) -0.3818(2)
H21 H 0.8012 -0.4685 -0.3441
C29 C 0.6918(3) -0.3747(2) -0.3325(2)
H22 H 0.7141 -0.3607 -0.2618
C30 C 0.7696(2) -0.5306(2) -0.54442(19)
C31 C 0.7738(2) -0.5160(2) -0.63538(19)
H23 H 0.7363 -0.4679 -0.6631
C32 C 0.8333(2) -0.5724(2) -0.68533(18)
H24 H 0.8348 -0.5620 -0.7464
C33 C 0.8902(2) -0.6435(2) -0.64536(18)
C34 C 0.8823(3) -0.6618(3) -0.5570(2)
H25 H 0.9175 -0.7119 -0.5309
C35 C 0.8227(3) -0.6061(3) -0.5070(2)
H26 H 0.8180 -0.6194 -0.4479
C36 C 0.9576(2) -0.7030(2) -0.6980(2)
C37 C 1.5344(2) -1.0449(2) -1.1716(2)
H27 H 1.6056 -1.0143 -1.1697
C38 C 1.4797(2) -0.9800(2) -1.1238(2)
H28 H 1.5140 -0.9077 -1.0913
C39 C 1.3737(2) -1.02267(19) -1.12453(18)
C40 C 1.3311(3) -1.1316(2) -1.1716(3)
H29 H 1.2620 -1.1652 -1.1717
C41 C 1.3905(3) -1.1905(2) -1.2183(3)
H30 H 1.3590 -1.2633 -1.2503
C42 C 1.3102(2) -0.95600(19) -1.07691(18)
C43 C 1.3432(2) -0.8447(2) -1.0473(2)
H31 H 1.4064 -0.8116 -1.0568
C44 C 1.2829(2) -0.7831(2) -1.0040(2)
H32 H 1.3060 -0.7090 -0.9845
C45 C 1.1881(2) -0.8307(2) -0.98919(18)
C46 C 1.1553(2) -0.9408(2) -1.0186(2)
H33 H 1.0923 -0.9736 -1.0087
C47 C 1.2150(3) -1.0029(2) -1.0626(2)
H34 H 1.1910 -1.0770 -1.0827
C48 C 1.1175(2) -0.7648(2) -0.94903(18)
N1 N 0.7531(2) 0.0234(2) -0.49944(19)
N2 N 0.3779(2) -0.1910(2) -0.66235(18)
N3 N 0.6106(2) -0.33004(19) -0.38158(18)
N4 N 1.4908(2) -1.14867(19) -1.22016(17)
Er1A Er 1.047394(8) -0.342813(7) -1.072446(7)
Cu1A Cu 0.33834(4) -0.09309(4) -0.56519(3)
Cu2_2 Cu 1.55321(3) -1.22420(3) -1.31081(3)
Cl1A Cl 0.46084(8) 0.09341(6) -0.58515(6)
O4A O 0.95038(17) -0.63040(15) -1.07452(14)
N2A N 0.6221(2) 0.1910(2) -0.33765(18)
N4_2 N 0.4908(2) -0.14867(19) -0.22016(17)
O10 O 1.0915(3) -0.8924(2) -0.7778(2)
H35 H 1.083(5) -0.841(3) -0.735(3)
H36 H 1.065(4) -0.878(4) -0.833(2)
O11 O 0.7787(2) -0.9615(2) -1.20448(19)
H37 H 0.817(3) -1.007(3) -1.199(3)
H38 H 0.725(3) -0.988(3) -1.262(2)
loop_
_geom_bond_atom_site_label_1
_geom_bond_atom_site_label_2
_geom_bond_site_symmetry_1
_geom_bond_site_symmetry_2
Er1 O1 1_555 1_555
Cu1 Cl1 1_555 1_555
Cu2 Cl1 1_555 1_555
Cl1 Cu1A 1_555 1_555
O1 C48 1_555 1_555
O2 Er1 1_555 1_555
O3 Er1 1_555 1_555
O4 C12 1_555 1_555
O5 Er1 1_555 1_555
O6 C24 1_555 1_555
O7 Er1 1_555 1_555
O8 C36 1_555 1_555
O9 Er1 1_555 1_555
H1 O9 1_555 1_555
H2 O9 1_555 1_555
C1 H3 1_555 1_555
C2 C1 1_555 1_555
H4 C2 1_555 1_555
C3 C2 1_555 1_555
C4 C3 1_555 1_555
H5 C4 1_555 1_555
C5 C4 1_555 1_555
H6 C5 1_555 1_555
C6 C3 1_555 1_555
C7 C6 1_555 1_555
H7 C7 1_555 1_555
C8 C7 1_555 1_555
H8 C8 1_555 1_555
C9 C8 1_555 1_555
C10 C9 1_555 1_555
H9 C10 1_555 1_555
C11 C6 1_555 1_555
H10 C11 1_555 1_555
C12 O3 1_555 1_555
C13 H11 1_555 1_555
C14 C13 1_555 1_555
H12 C14 1_555 1_555
C15 C14 1_555 1_555
C16 C15 1_555 1_555
H13 C16 1_555 1_555
C17 C16 1_555 1_555
H14 C17 1_555 1_555
C18 C15 1_555 1_555
C19 C18 1_555 1_555
H15 C19 1_555 1_555
C20 C19 1_555 1_555
H16 C20 1_555 1_555
C21 C20 1_555 1_555
C22 C21 1_555 1_555
H17 C22 1_555 1_555
C23 C18 1_555 1_555
H18 C23 1_555 1_555
C24 O5 1_555 1_555
C25 H19 1_555 1_555
C26 C25 1_555 1_555
H20 C26 1_555 1_555
C27 C26 1_555 1_555
C28 C27 1_555 1_555
H21 C28 1_555 1_555
C29 C28 1_555 1_555
H22 C29 1_555 1_555
C30 C27 1_555 1_555
C31 C30 1_555 1_555
H23 C31 1_555 1_555
C32 C31 1_555 1_555
H24 C32 1_555 1_555
C33 C32 1_555 1_555
C34 C33 1_555 1_555
H25 C34 1_555 1_555
C35 C30 1_555 1_555
H26 C35 1_555 1_555
C36 O7 1_555 1_555
C37 H27 1_555 1_555
C38 C37 1_555 1_555
H28 C38 1_555 1_555
C39 C38 1_555 1_555
C40 C39 1_555 1_555
H29 C40 1_555 1_555
C41 C40 1_555 1_555
H30 C41 1_555 1_555
C42 C39 1_555 1_555
C43 C42 1_555 1_555
H31 C43 1_555 1_555
C44 C43 1_555 1_555
H32 C44 1_555 1_555
C45 C44 1_555 1_555
C46 C45 1_555 1_555
H33 C46 1_555 1_555
C47 C42 1_555 1_555
H34 C47 1_555 1_555
C48 O2 1_555 1_555
N1 Cu1 1_555 1_555
N2 C13 1_555 1_555
N3 Cu2 1_555 1_555
N4 C37 1_555 1_555
O10 H35 1_555 1_555
H36 O10 1_555 1_555
O11 H37 1_555 1_555
H38 O11 1_555 1_555
Er1A O4 1_555 1_555
Cu1A N2 1_555 1_555
Cu2_2 N4 1_555 1_555
Cl1A Cu1 1_555 1_555
O4A Er1 1_555 1_555
N2A Cu1 1_555 1_555
N4_2 Cu2 1_555 1_555
C1 N1 1_555 1_555
C5 N1 1_555 1_555
C9 C12 1_555 1_555
C10 C11 1_555 1_555
C17 N2 1_555 1_555
C21 C24 1_555 1_555
C22 C23 1_555 1_555
C25 N3 1_555 1_555
C29 N3 1_555 1_555
C33 C36 1_555 1_555
C34 C35 1_555 1_555
C41 N4 1_555 1_555
C45 C48 1_555 1_555
C46 C47 1_555 1_555
Cu1A Cl1A 1_555 1_555

#END
