
#######################################################################
#
#                 Cambridge Crystallographic Data Centre
#                                CCDC 
#
#######################################################################
#
# If this CIF has been generated from an entry in the Cambridge 
# Structural Database, then it will include bibliographic, chemical, 
# crystal, experimental, refinement or atomic coordinate data resulting 
# from the CCDC's data processing and validation procedures.
#
#######################################################################

data_ZIPLOB01
_symmetry_cell_setting           monoclinic
_symmetry_space_group_name_H-M   'P 21/c'
_symmetry_Int_Tables_number      14
_space_group_name_Hall           '-P 2ybc'
loop_
_symmetry_equiv_pos_site_id
_symmetry_equiv_pos_as_xyz
1 x,y,z
2 -x,1/2+y,1/2-z
3 -x,-y,-z
4 x,1/2-y,1/2+z
_cell_length_a                   16.367(3)
_cell_length_b                   6.8942(14)
_cell_length_c                   7.7074(15)
_cell_angle_alpha                90
_cell_angle_beta                 90.12(3)
_cell_angle_gamma                90
_cell_volume                     869.681
loop_
_atom_site_label
_atom_site_type_symbol
_atom_site_fract_x
_atom_site_fract_y
_atom_site_fract_z
Co1 Co 0.5000 0.0000 0.0000
O1 O 0.51458(17) 0.2740(5) 0.1101(5)
O2 O 0.5823(2) 0.4588(5) 0.3001(5)
O3 O 0.59648(18) -0.1037(5) 0.1532(5)
H1 H 0.6294 -0.1751 0.0969
H2 H 0.5787 -0.1749 0.2349
N1 N 0.7221(3) 0.4445(8) 0.1175(6)
N2 N 0.7338(3) 0.6382(7) 0.1165(7)
N3 N 0.8036(3) 0.6759(8) 0.1961(8)
C1 C 0.7860(3) 0.3548(9) 0.1960(7)
C2 C 0.8047(3) 0.1610(9) 0.2270(7)
H3 H 0.7693 0.0615 0.1956
C3 C 0.8769(4) 0.1253(10) 0.3049(8)
H4 H 0.8922 -0.0026 0.3255
C4 C 0.9302(4) 0.2765(11) 0.3564(9)
H5 H 0.9791 0.2452 0.4113
C5 C 0.9120(4) 0.4652(11) 0.3279(10)
H6 H 0.9471 0.5642 0.3620
C6 C 0.8374(4) 0.5049(7) 0.2441(9)
C7 C 0.6493(3) 0.3614(8) 0.0429(6)
H7 H 0.6605 0.2280 0.0109
H8 H 0.6357 0.4317 -0.0622
C8 C 0.5765(3) 0.3656(7) 0.1632(6)
O1B O 0.48542(17) -0.2740(5) -0.1101(5)
O2B O 0.4177(2) -0.4588(5) -0.3001(5)
O3B O 0.40352(18) 0.1037(5) -0.1532(5)
H1B H 0.3706 0.1751 -0.0969
H2B H 0.4213 0.1749 -0.2349
N1B N 0.2779(3) -0.4445(8) -0.1175(6)
N2B N 0.2662(3) -0.6382(7) -0.1165(7)
N3B N 0.1964(3) -0.6759(8) -0.1961(8)
C1B C 0.2140(3) -0.3548(9) -0.1960(7)
C2B C 0.1953(3) -0.1610(9) -0.2270(7)
H3B H 0.2307 -0.0615 -0.1956
C3B C 0.1231(4) -0.1253(10) -0.3049(8)
H4B H 0.1078 0.0026 -0.3255
C4B C 0.0698(4) -0.2765(11) -0.3564(9)
H5B H 0.0209 -0.2452 -0.4113
C5B C 0.0880(4) -0.4652(11) -0.3279(10)
H6B H 0.0529 -0.5642 -0.3620
C6B C 0.1626(4) -0.5049(7) -0.2441(9)
C7B C 0.3507(3) -0.3614(8) -0.0429(6)
H7B H 0.3395 -0.2280 -0.0109
H8B H 0.3643 -0.4317 0.0622
C8B C 0.4235(3) -0.3656(7) -0.1632(6)
Co1A Co 0.5000 -0.5000 -0.5000
Co1A_2 Co 0.5000 0.5000 0.5000
O2A O 0.4177(2) -0.0412(5) 0.1999(5)
O2C O 0.5823(2) 0.0412(5) -0.1999(5)
loop_
_geom_bond_atom_site_label_1
_geom_bond_atom_site_label_2
_geom_bond_site_symmetry_1
_geom_bond_site_symmetry_2
Co1 O1 1_555 1_555
O1 C8 1_555 1_555
O2 C8 1_555 1_555
O3 Co1 1_555 1_555
H1 O3 1_555 1_555
H2 O3 1_555 1_555
N1 N2 1_555 1_555
N2 N3 1_555 1_555
N3 C6 1_555 1_555
C1 N1 1_555 1_555
C2 C1 1_555 1_555
H3 C2 1_555 1_555
C3 C2 1_555 1_555
H4 C3 1_555 1_555
C4 C3 1_555 1_555
H5 C4 1_555 1_555
C5 C4 1_555 1_555
H6 C5 1_555 1_555
C6 C1 1_555 1_555
C7 N1 1_555 1_555
H7 C7 1_555 1_555
H8 C7 1_555 1_555
C8 C7 1_555 1_555
O1B Co1 1_555 1_555
O2B C8B 1_555 1_555
O3B Co1 1_555 1_555
H1B O3B 1_555 1_555
H2B O3B 1_555 1_555
N1B N2B 1_555 1_555
N2B N3B 1_555 1_555
N3B C6B 1_555 1_555
C1B N1B 1_555 1_555
C2B C1B 1_555 1_555
H3B C2B 1_555 1_555
C3B C2B 1_555 1_555
H4B C3B 1_555 1_555
C4B C3B 1_555 1_555
H5B C4B 1_555 1_555
C5B C4B 1_555 1_555
H6B C5B 1_555 1_555
C6B C1B 1_555 1_555
C7B N1B 1_555 1_555
H7B C7B 1_555 1_555
H8B C7B 1_555 1_555
C8B O1B 1_555 1_555
Co1A O2B 1_555 1_555
Co1A_2 O2 1_555 1_555
O2A Co1 1_555 1_555
O2C Co1 1_555 1_555
C5 C6 1_555 1_555
C5B C6B 1_555 1_555
C7B C8B 1_555 1_555

#END
