
#######################################################################
#
#                 Cambridge Crystallographic Data Centre
#                                CCDC 
#
#######################################################################
#
# If this CIF has been generated from an entry in the Cambridge 
# Structural Database, then it will include bibliographic, chemical, 
# crystal, experimental, refinement or atomic coordinate data resulting 
# from the CCDC's data processing and validation procedures.
#
#######################################################################

data_ZIQBOS
_symmetry_cell_setting           monoclinic
_symmetry_space_group_name_H-M   'C 2/c'
_symmetry_Int_Tables_number      15
_space_group_name_Hall           '-C 2yn'
loop_
_symmetry_equiv_pos_site_id
_symmetry_equiv_pos_as_xyz
1 x,y,z
2 -x,y,1/2-z
3 1/2+x,1/2+y,z
4 1/2-x,1/2+y,1/2-z
5 -x,-y,-z
6 x,-y,1/2+z
7 1/2-x,1/2-y,-z
8 1/2+x,1/2-y,1/2+z
_cell_length_a                   11.368(7)
_cell_length_b                   17.488(8)
_cell_length_c                   20.979(12)
_cell_angle_alpha                90
_cell_angle_beta                 105.080(7)
_cell_angle_gamma                90
_cell_volume                     4027.08
loop_
_atom_site_label
_atom_site_type_symbol
_atom_site_fract_x
_atom_site_fract_y
_atom_site_fract_z
Cd1 Cd 0.644308(19) 0.239962(12) 0.718747(9)
O1 O 0.5683(2) 0.75911(12) 0.31963(12)
O2 O 0.7208(3) 0.25921(14) 0.62920(15)
O3 O 0.6395(2) 0.36267(14) 0.65801(12)
C1 C 0.6945(3) 0.32928(18) 0.62212(15)
C2 C 0.7004(3) 0.05856(17) 0.73128(14)
C3 C 0.6430(3) 0.67316(17) 0.40962(14)
C4 C 0.6395(3) 0.70418(17) 0.34243(13)
C5 C 0.5080(3) 0.07850(19) 0.66332(16)
H1 H 0.4461 0.1122 0.6433
N1 N 0.8189(2) 0.16863(15) 0.77631(12)
C6 C 0.8140(3) 0.09211(17) 0.77331(13)
O4 O 0.7077(3) 0.67609(13) 0.31063(11)
C7 C 0.6863(3) 0.59995(17) 0.42668(13)
H2 H 0.7140 0.5709 0.3964
C8 C 0.7334(3) 0.37246(18) 0.56859(14)
N2 N 0.6112(2) 0.10712(14) 0.70173(12)
C9 C 0.6909(3) 0.44634(17) 0.55136(14)
H3 H 0.6338 0.4674 0.5709
C10 C 0.6894(3) 0.56879(17) 0.48836(14)
C11 C 0.7320(3) 0.48934(17) 0.50562(13)
C12 C 1.0166(3) 0.0823(2) 0.84209(17)
H4 H 1.0826 0.0529 0.8646
C13 C 0.6504(4) 0.6150(2) 0.53315(16)
H5 H 0.6535 0.5963 0.5750
C14 C 0.8155(4) 0.3403(2) 0.53840(18)
H6 H 0.8430 0.2906 0.5489
C15 C 1.0245(3) 0.1603(2) 0.84400(17)
H7 H 1.0955 0.1849 0.8667
C16 C 0.9111(3) 0.0471(2) 0.80687(16)
H8 H 0.9050 -0.0059 0.8056
C17 C 0.9227(3) 0.2011(2) 0.81093(17)
H9 H 0.9266 0.2542 0.8128
C18 C 0.8172(3) 0.4557(2) 0.47687(17)
H10 H 0.8475 0.4834 0.4468
C19 C 0.6020(3) 0.7171(2) 0.45417(17)
H11 H 0.5711 0.7658 0.4424
C20 C 0.6071(4) 0.6885(2) 0.51609(18)
H12 H 0.5815 0.7185 0.5465
C21 C 0.8570(4) 0.3816(2) 0.4925(2)
H13 H 0.9121 0.3595 0.4720
C22 C 0.6877(3) -0.01973(19) 0.72172(18)
H14 H 0.7505 -0.0526 0.7421
C23 C 0.4892(3) 0.0013(2) 0.65214(19)
H15 H 0.4160 -0.0168 0.6253
C24 C 0.5807(4) -0.0482(2) 0.6815(2)
H16 H 0.5707 -0.1005 0.6744
Cd1D Cd 0.355692(19) 0.760038(12) 0.281253(9)
Cd1E Cd 0.644308(19) 0.760038(12) 0.218747(9)
O1D O 0.4317(2) 0.24089(12) 0.68037(12)
O1E O 0.5683(2) 0.24089(12) 0.81963(12)
O4E O 0.7077(3) 0.32391(13) 0.81063(11)
loop_
_geom_bond_atom_site_label_1
_geom_bond_atom_site_label_2
_geom_bond_site_symmetry_1
_geom_bond_site_symmetry_2
Cd1 O2 1_555 1_555
O1 C4 1_555 1_555
O2 C1 1_555 1_555
O3 Cd1 1_555 1_555
C1 O3 1_555 1_555
C2 C6 1_555 1_555
C3 C4 1_555 1_555
C4 O4 1_555 1_555
C5 H1 1_555 1_555
N1 Cd1 1_555 1_555
C6 N1 1_555 1_555
O4 Cd1E 1_555 1_555
C7 C3 1_555 1_555
H2 C7 1_555 1_555
C8 C1 1_555 1_555
N2 Cd1 1_555 1_555
C9 C8 1_555 1_555
H3 C9 1_555 1_555
C10 C7 1_555 1_555
C11 C9 1_555 1_555
C12 H4 1_555 1_555
C13 C10 1_555 1_555
H5 C13 1_555 1_555
C14 C8 1_555 1_555
H6 C14 1_555 1_555
C15 C12 1_555 1_555
H7 C15 1_555 1_555
C16 C6 1_555 1_555
H8 C16 1_555 1_555
C17 N1 1_555 1_555
H9 C17 1_555 1_555
C18 C11 1_555 1_555
H10 C18 1_555 1_555
C19 C3 1_555 1_555
H11 C19 1_555 1_555
C20 C13 1_555 1_555
H12 C20 1_555 1_555
C21 C14 1_555 1_555
H13 C21 1_555 1_555
C22 C2 1_555 1_555
H14 C22 1_555 1_555
C23 C5 1_555 1_555
H15 C23 1_555 1_555
C24 C22 1_555 1_555
H16 C24 1_555 1_555
Cd1D O1 1_555 1_555
Cd1E O1 1_555 1_555
O1D Cd1 1_555 1_555
O1E Cd1 1_555 1_555
O4E Cd1 1_555 1_555
C2 N2 1_555 1_555
C5 N2 1_555 1_555
C10 C11 1_555 1_555
C12 C16 1_555 1_555
C15 C17 1_555 1_555
C18 C21 1_555 1_555
C19 C20 1_555 1_555
C23 C24 1_555 1_555

#END
