
#######################################################################
#
#                 Cambridge Crystallographic Data Centre
#                                CCDC 
#
#######################################################################
#
# If this CIF has been generated from an entry in the Cambridge 
# Structural Database, then it will include bibliographic, chemical, 
# crystal, experimental, refinement or atomic coordinate data resulting 
# from the CCDC's data processing and validation procedures.
#
#######################################################################

data_ZIQBUY
_symmetry_cell_setting           monoclinic
_symmetry_space_group_name_H-M   'P 2/c'
_symmetry_Int_Tables_number      13
_space_group_name_Hall           '-P 2yc'
loop_
_symmetry_equiv_pos_site_id
_symmetry_equiv_pos_as_xyz
1 x,y,z
2 -x,y,1/2-z
3 -x,-y,-z
4 x,-y,1/2+z
_cell_length_a                   6.390(6)
_cell_length_b                   8.324(8)
_cell_length_c                   19.538(16)
_cell_angle_alpha                90
_cell_angle_beta                 105.45(3)
_cell_angle_gamma                90
_cell_volume                     1001.68
loop_
_atom_site_label
_atom_site_type_symbol
_atom_site_fract_x
_atom_site_fract_y
_atom_site_fract_z
Zn1 Zn 0.5000 0.06204(5) 0.2500
O1 O 0.6764(6) 0.0165(6) 0.1734(2)
O2 O 0.3849(6) -0.1132(4) 0.16256(19)
N1 N 0.7042(4) 0.2547(3) 0.28855(13)
C1 C 0.5458(7) -0.0849(5) 0.1415(2)
C2 C 0.5961(5) -0.1785(4) 0.08238(16)
C3 C 0.4962(5) -0.3238(4) 0.06114(15)
H1 H 0.3884 -0.3586 0.0815
C4 C 0.5506(5) -0.4207(4) 0.01036(15)
C5 C 0.7123(8) -0.3623(6) -0.0193(2)
H2 H 0.7512 -0.4222 -0.0541
C6 C 0.8113(10) -0.2169(7) 0.0009(3)
H3 H 0.9187 -0.1814 -0.0194
C7 C 0.7542(8) -0.1239(6) 0.0514(2)
H4 H 0.8210 -0.0252 0.0646
C8 C 0.9145(6) 0.2452(6) 0.32465(19)
H5 H 0.9775 0.1443 0.3347
C9 C 1.0397(7) 0.3778(8) 0.3470(2)
H6 H 1.1841 0.3674 0.3728
C10 C 0.9501(9) 0.5245(8) 0.3311(2)
H7 H 1.0325 0.6161 0.3464
C11 C 0.7352(7) 0.5389(5) 0.2917(2)
H8 H 0.6728 0.6394 0.2795
C12 C 0.6165(5) 0.4005(4) 0.27121(15)
O1B O 0.3236(6) -1.0165(6) -0.1734(2)
O2B O 0.6151(6) -0.8868(4) -0.16256(19)
C1B C 0.4542(7) -0.9151(5) -0.1415(2)
C2B C 0.4039(5) -0.8215(4) -0.08238(16)
C3B C 0.5038(5) -0.6762(4) -0.06114(15)
H1B H 0.6116 -0.6414 -0.0815
C4B C 0.4494(5) -0.5793(4) -0.01036(15)
C5B C 0.2877(8) -0.6377(6) 0.0193(2)
H2B H 0.2488 -0.5778 0.0541
C6B C 0.1887(10) -0.7831(7) -0.0009(3)
H3B H 0.0813 -0.8186 0.0194
C7B C 0.2458(8) -0.8761(6) -0.0514(2)
H4B H 0.1790 -0.9748 -0.0646
N1A N 0.2958(4) 0.2547(3) 0.21145(13)
C8A C 0.0855(6) 0.2452(6) 0.17535(19)
H5A H 0.0225 0.1443 0.1653
C9A C -0.0397(7) 0.3778(8) 0.1530(2)
H6A H -0.1841 0.3674 0.1272
C10A C 0.0499(9) 0.5245(8) 0.1689(2)
H7A H -0.0325 0.6161 0.1536
C11A C 0.2648(7) 0.5389(5) 0.2083(2)
H8A H 0.3272 0.6394 0.2205
C12A C 0.3835(5) 0.4005(4) 0.22879(15)
Zn1B Zn 0.5000 -1.06204(5) -0.2500
O1A O 0.3236(6) 0.0165(6) 0.3266(2)
O2A O 0.6151(6) -0.1132(4) 0.33744(19)
loop_
_geom_bond_atom_site_label_1
_geom_bond_atom_site_label_2
_geom_bond_site_symmetry_1
_geom_bond_site_symmetry_2
Zn1 O1 1_555 1_555
O1 C1 1_555 1_555
O2 Zn1 1_555 1_555
N1 Zn1 1_555 1_555
C1 O2 1_555 1_555
C2 C1 1_555 1_555
C3 C2 1_555 1_555
H1 C3 1_555 1_555
C4 C3 1_555 1_555
C5 C4 1_555 1_555
H2 C5 1_555 1_555
C6 C5 1_555 1_555
H3 C6 1_555 1_555
C7 C2 1_555 1_555
H4 C7 1_555 1_555
C8 N1 1_555 1_555
H5 C8 1_555 1_555
C9 C8 1_555 1_555
H6 C9 1_555 1_555
C10 C9 1_555 1_555
H7 C10 1_555 1_555
C11 C10 1_555 1_555
H8 C11 1_555 1_555
C12 N1 1_555 1_555
O1B C1B 1_555 1_555
O2B C1B 1_555 1_555
C1B C2B 1_555 1_555
C2B C3B 1_555 1_555
C3B H1B 1_555 1_555
C4B C4 1_555 1_555
C5B C4B 1_555 1_555
H2B C5B 1_555 1_555
C6B C5B 1_555 1_555
H3B C6B 1_555 1_555
C7B C2B 1_555 1_555
H4B C7B 1_555 1_555
N1A Zn1 1_555 1_555
C8A N1A 1_555 1_555
H5A C8A 1_555 1_555
C9A C8A 1_555 1_555
H6A C9A 1_555 1_555
C10A C9A 1_555 1_555
H7A C10A 1_555 1_555
C11A C10A 1_555 1_555
H8A C11A 1_555 1_555
C12A C12 1_555 1_555
Zn1B O1B 1_555 1_555
O1A Zn1 1_555 1_555
O2A Zn1 1_555 1_555
C6 C7 1_555 1_555
C11 C12 1_555 1_555
O2B Zn1B 1_555 1_555
C3B C4B 1_555 1_555
C6B C7B 1_555 1_555
N1A C12A 1_555 1_555
C11A C12A 1_555 1_555

#END
