
#######################################################################
#
#                 Cambridge Crystallographic Data Centre
#                                CCDC 
#
#######################################################################
#
# If this CIF has been generated from an entry in the Cambridge 
# Structural Database, then it will include bibliographic, chemical, 
# crystal, experimental, refinement or atomic coordinate data resulting 
# from the CCDC's data processing and validation procedures.
#
#######################################################################

data_ZIQCEJ
_symmetry_cell_setting           triclinic
_symmetry_space_group_name_H-M   'P -1'
_symmetry_Int_Tables_number      2
_space_group_name_Hall           '-P 1'
loop_
_symmetry_equiv_pos_site_id
_symmetry_equiv_pos_as_xyz
1 x,y,z
2 -x,-y,-z
_cell_length_a                   9.4348(6)
_cell_length_b                   15.8008(9)
_cell_length_c                   22.8501(14)
_cell_angle_alpha                71.1580(10)
_cell_angle_beta                 79.6330(10)
_cell_angle_gamma                89.2190(10)
_cell_volume                     3167.64
loop_
_atom_site_label
_atom_site_type_symbol
_atom_site_fract_x
_atom_site_fract_y
_atom_site_fract_z
Cd1 Cd 0.5000 1.0000 0.0000
Cd2 Cd -0.5000 0.5000 0.5000
Cd3 Cd -0.5000 1.0000 0.5000
Cd4 Cd -1.0000 1.5000 0.0000
N1 N -0.5933(6) 1.4409(4) 0.0752(2)
N2 N 0.4638(6) 1.0637(4) 0.1768(3)
N3 N 0.0288(7) 0.9553(4) 0.0849(3)
N4 N -0.5379(7) 0.5683(4) 0.4004(3)
N5 N -0.2651(6) 1.1204(4) 0.3047(3)
N6 N 0.5138(6) 1.0044(4) 0.0999(3)
N7 N -0.3882(7) 1.0386(4) 0.3956(3)
N8 N -0.1827(8) 0.7330(4) 0.4332(3)
C1 C -0.6979(8) 1.4932(5) 0.0521(3)
H1 H -0.7142 1.5501 0.0550
N9 N -0.7734(7) 1.4531(5) 0.0250(3)
N10 N -1.0773(7) 0.4686(4) 0.1046(3)
N11 N 0.2484(7) 1.0039(4) 0.0309(2)
N12 N -0.3086(8) 0.6053(4) 0.4790(3)
C2 C -1.0268(8) 0.4056(5) 0.1514(3)
H2 H -0.9752 0.3568 0.1470
C3 C -0.0063(8) 0.9155(5) 0.2196(3)
H3 H 0.0711 0.9525 0.1932
C4 C -0.1515(9) 0.8273(5) 0.3941(3)
H4 H -0.0647 0.8489 0.4029
H5 H -0.2303 0.8626 0.4053
C5 C 0.2076(10) 1.1502(6) 0.2783(4)
H6 H 0.2616 1.1431 0.3097
C6 C 0.0440(9) 1.1685(5) 0.1876(3)
H7 H -0.0106 1.1732 0.1566
C7 C 0.2715(8) 1.1444(4) 0.2211(3)
N13 N -0.7156(9) 1.2517(5) 0.4176(3)
C8 C 0.1656(9) 1.0763(5) 0.0309(3)
H8 H 0.1966 1.1361 0.0117
C9 C -0.6115(9) 1.2010(5) 0.4411(3)
H9 H -0.5192 1.2235 0.4386
C10 C 0.1624(9) 0.9343(5) 0.0638(3)
H10 H 0.1910 0.8757 0.0718
C11 C 0.5073(8) 1.0780(5) 0.1145(3)
H11 H 0.5302 1.1347 0.0850
N14 N -0.6170(8) 0.6588(4) 0.3184(3)
C12 C -0.1010(8) 0.8803(5) 0.1937(3)
C13 C -0.5542(8) 1.4265(5) 0.1828(3)
C14 C -0.1778(8) 1.1950(5) 0.2571(3)
H12 H -0.1884 1.2474 0.2705
H13 H -0.2139 1.2085 0.2181
C15 C -0.0203(8) 1.1765(5) 0.2450(3)
C16 C -0.2117(8) 0.8233(4) 0.2351(3)
H14 H -0.2766 0.7966 0.2194
N15 N -1.1369(7) 0.4991(5) 0.1922(3)
C17 C -0.4811(8) 1.3695(5) 0.2228(3)
H15 H -0.3951 1.3487 0.2066
C18 C 0.0317(9) 1.0458(6) 0.0633(3)
H16 H -0.0454 1.0811 0.0697
C19 C -0.1312(9) 0.8413(5) 0.3241(3)
C20 C -1.1439(8) 0.5252(6) 0.1299(3)
H17 H -1.1891 0.5755 0.1086
C21 C -0.2275(8) 0.8055(5) 0.2986(3)
H18 H -0.3048 0.7686 0.3252
C22 C -0.3882(8) 0.9962(5) 0.3525(3)
H19 H -0.4342 0.9409 0.3606
C23 C -0.3110(8) 1.1128(5) 0.3649(3)
H20 H -0.2904 1.1551 0.3829
C24 C 0.4390(9) 0.9743(5) 0.2036(3)
H21 H 0.4072 0.9430 0.2461
C25 C 0.4697(9) 0.9396(5) 0.1565(3)
H22 H 0.4617 0.8789 0.1619
C26 C -0.9323(12) 0.6338(7) 0.3161(4)
H23 H -0.9252 0.6293 0.3571
C27 C -0.9570(11) 0.6471(6) 0.1966(4)
H24 H -0.9651 0.6523 0.1556
C28 C -0.0221(8) 0.8977(5) 0.2837(3)
H25 H 0.0424 0.9244 0.2995
C29 C -0.4884(8) 0.5445(6) 0.3493(4)
H26 H -0.4294 0.4970 0.3487
C30 C -0.0883(9) 0.6713(6) 0.4568(3)
H27 H 0.0100 0.6805 0.4545
N16 N -0.6528(8) 1.1164(4) 0.4680(3)
C31 C -0.7134(10) 1.3734(6) 0.0305(3)
H28 H -0.7436 1.3302 0.0152
C32 C -0.0896(8) 0.8950(5) 0.1245(3)
H29 H -0.0785 0.8376 0.1176
H30 H -0.1789 0.9185 0.1119
C33 C -0.3144(10) 0.6915(5) 0.4488(3)
H31 H -0.3984 0.7199 0.4394
C34 C 0.4297(8) 1.1304(5) 0.2082(3)
H32 H 0.4797 1.1868 0.1821
H33 H 0.4645 1.1116 0.2477
C35 C -0.4963(7) 1.4616(5) 0.1127(3)
H34 H -0.4800 1.5260 0.0998
H35 H -0.4041 1.4359 0.1040
C36 C -0.8402(11) 0.6891(5) 0.2066(3)
H36 H -0.7708 0.7221 0.1728
C37 C -0.3124(8) 1.0455(6) 0.2967(3)
H37 H -0.2958 1.0310 0.2598
C38 C -0.6555(9) 1.3698(5) 0.3123(3)
C39 C -0.8283(11) 0.6813(5) 0.2672(4)
C40 C 0.1897(9) 1.1533(5) 0.1765(3)
H38 H 0.2325 1.1492 0.1376
C41 C -1.0633(9) 0.4251(6) 0.2052(3)
H39 H -1.0412 0.3929 0.2441
C42 C -0.7024(11) 0.7251(5) 0.2801(4)
H40 H -0.6415 0.7587 0.2406
H41 H -0.7374 0.7668 0.3020
C43 C -0.6027(9) 1.3661(5) 0.0616(3)
H42 H -0.5441 1.3176 0.0717
C44 C -0.7931(11) 1.1130(7) 0.4623(4)
H43 H -0.8532 1.0614 0.4776
C45 C -0.6151(10) 0.6366(5) 0.3805(3)
H44 H -0.6639 0.6669 0.4062
C46 C -0.7308(9) 1.4256(6) 0.2728(3)
H45 H -0.8187 1.4443 0.2890
C47 C -0.1685(11) 0.5931(6) 0.4845(3)
H46 H -0.1321 0.5385 0.5046
C48 C 0.0639(11) 1.1664(6) 0.2891(4)
H47 H 0.0223 1.1707 0.3281
C49 C -0.8324(10) 1.1950(7) 0.4312(4)
H48 H -0.9226 1.2100 0.4210
C50 C -0.6809(9) 1.4559(5) 0.2088(3)
H49 H -0.7333 1.4966 0.1827
C51 C -1.0479(11) 0.5923(6) 0.3053(4)
H50 H -1.1177 0.5601 0.3392
C52 C -1.0619(9) 0.5976(6) 0.2459(4)
C53 C -0.5297(10) 1.3405(5) 0.2878(3)
H51 H -0.4764 1.3011 0.3143
C54 C -0.7072(9) 1.3461(5) 0.3828(3)
H52 H -0.6425 1.3759 0.3993
H53 H -0.8020 1.3694 0.3902
C55 C -0.5360(10) 0.5987(7) 0.2998(4)
H54 H -0.5165 0.5955 0.2592
C56 C -1.1846(9) 0.5492(6) 0.2340(4)
H55 H -1.2353 0.5086 0.2738
H56 H -1.2520 0.5924 0.2161
S1 S -0.1755(3) 0.33099(15) 0.38336(10)
S2 S 0.5903(4) 0.70145(17) 0.12241(11)
S3 S -1.0653(3) 1.32257(19) 0.00020(13)
S4 S -0.7486(3) 0.8515(2) 0.39358(12)
N17 N -1.2714(8) 1.2499(5) 0.1022(3)
N18 N 0.4813(8) 0.8395(5) 0.0400(3)
C57 C -0.2703(8) 0.3715(5) 0.4325(3)
C58 C 0.5274(9) 0.7835(5) 0.0736(4)
C59 C -1.1893(10) 1.2850(8) 0.0604(4)
N19 N -0.3411(8) 0.4011(4) 0.4656(3)
N20 N -0.6546(8) 0.8961(5) 0.4860(3)
C60 C -0.6943(9) 0.8782(5) 0.4478(4)
N4A N -1.4621(7) 1.4317(4) -0.4004(3)
N10A N -0.9227(7) 1.5314(4) -0.1046(3)
C2A C -0.9732(8) 1.5944(5) -0.1514(3)
H2A H -1.0248 1.6432 -0.1470
N14A N -1.3830(8) 1.3412(4) -0.3184(3)
N15A N -0.8631(7) 1.5009(5) -0.1922(3)
C20A C -0.8561(8) 1.4748(6) -0.1299(3)
H17A H -0.8109 1.4245 -0.1086
C26A C -1.0677(12) 1.3662(7) -0.3161(4)
H23A H -1.0748 1.3707 -0.3571
C27A C -1.0430(11) 1.3529(6) -0.1966(4)
H24A H -1.0349 1.3477 -0.1556
C29A C -1.5116(8) 1.4555(6) -0.3493(4)
H26A H -1.5706 1.5030 -0.3487
C36A C -1.1598(11) 1.3109(5) -0.2066(3)
H36A H -1.2292 1.2779 -0.1728
C39A C -1.1717(11) 1.3187(5) -0.2672(4)
C41A C -0.9367(9) 1.5749(6) -0.2052(3)
H39A H -0.9588 1.6071 -0.2441
C42A C -1.2976(11) 1.2749(5) -0.2801(4)
H40A H -1.3585 1.2413 -0.2406
H41A H -1.2626 1.2332 -0.3020
C45A C -1.3849(10) 1.3634(5) -0.3805(3)
H44A H -1.3361 1.3331 -0.4062
C51A C -0.9521(11) 1.4077(6) -0.3053(4)
H50A H -0.8823 1.4399 -0.3392
C52A C -0.9381(9) 1.4024(6) -0.2459(4)
C55A C -1.4640(10) 1.4013(7) -0.2998(4)
H54A H -1.4835 1.4045 -0.2592
C56A C -0.8154(9) 1.4508(6) -0.2340(4)
H55A H -0.7647 1.4914 -0.2738
H56A H -0.7480 1.4076 -0.2161
N1A N -0.4067(6) 0.5591(4) 0.9248(2)
C1A C -0.3021(8) 0.5068(5) 0.9479(3)
H1A H -0.2858 0.4499 0.9450
N9A N -0.2266(7) 0.5469(5) 0.9750(3)
N13A N -0.2844(9) 0.7483(5) 0.5824(3)
C9A C -0.3885(9) 0.7990(5) 0.5589(3)
H9A H -0.4808 0.7765 0.5614
C13A C -0.4458(8) 0.5735(5) 0.8172(3)
C17A C -0.5189(8) 0.6305(5) 0.7772(3)
H15A H -0.6049 0.6513 0.7934
N16A N -0.3472(8) 0.8836(4) 0.5320(3)
C31A C -0.2866(10) 0.6266(6) 0.9695(3)
H28A H -0.2564 0.6698 0.9848
C35A C -0.5037(7) 0.5384(5) 0.8873(3)
H34A H -0.5200 0.4740 0.9002
H35A H -0.5959 0.5641 0.8960
C38A C -0.3445(9) 0.6302(5) 0.6877(3)
C43A C -0.3973(9) 0.6339(5) 0.9384(3)
H42A H -0.4559 0.6824 0.9283
C44A C -0.2069(11) 0.8870(7) 0.5377(4)
H43A H -0.1468 0.9386 0.5224
C46A C -0.2692(9) 0.5744(6) 0.7272(3)
H45A H -0.1813 0.5557 0.7110
C49A C -0.1676(10) 0.8050(7) 0.5688(4)
H48A H -0.0774 0.7900 0.5790
C50A C -0.3191(9) 0.5441(5) 0.7912(3)
H49A H -0.2667 0.5034 0.8173
C53A C -0.4703(10) 0.6595(5) 0.7122(3)
H51A H -0.5236 0.6989 0.6857
C54A C -0.2928(9) 0.6539(5) 0.6172(3)
H52A H -0.3575 0.6241 0.6007
H53A H -0.1980 0.6306 0.6098
N2A N 0.5362(6) 0.9363(4) -0.1768(3)
N5A N 1.2651(6) 0.8796(4) -0.3047(3)
N6A N 0.4862(6) 0.9956(4) -0.0999(3)
N7A N 1.3882(7) 0.9614(4) -0.3956(3)
C5A C 0.7924(10) 0.8498(6) -0.2783(4)
H6A H 0.7384 0.8569 -0.3097
C6A C 0.9560(9) 0.8315(5) -0.1876(3)
H7A H 1.0106 0.8268 -0.1566
C7A C 0.7285(8) 0.8556(4) -0.2211(3)
C11A C 0.4927(8) 0.9220(5) -0.1145(3)
H11A H 0.4698 0.8653 -0.0850
C14A C 1.1778(8) 0.8050(5) -0.2571(3)
H12A H 1.1884 0.7526 -0.2705
H13A H 1.2139 0.7915 -0.2181
C15A C 1.0203(8) 0.8235(5) -0.2450(3)
C22A C 1.3882(8) 1.0038(5) -0.3525(3)
H19A H 1.4342 1.0591 -0.3606
C23A C 1.3110(8) 0.8872(5) -0.3649(3)
H20A H 1.2904 0.8449 -0.3829
C24A C 0.5610(9) 1.0257(5) -0.2036(3)
H21A H 0.5928 1.0570 -0.2461
C25A C 0.5303(9) 1.0604(5) -0.1565(3)
H22A H 0.5383 1.1211 -0.1619
C34A C 0.5703(8) 0.8696(5) -0.2082(3)
H32A H 0.5203 0.8132 -0.1821
H33A H 0.5355 0.8884 -0.2477
C37A C 1.3124(8) 0.9545(6) -0.2967(3)
H37A H 1.2958 0.9690 -0.2598
C40A C 0.8103(9) 0.8467(5) -0.1765(3)
H38A H 0.7675 0.8508 -0.1376
C48A C 0.9361(11) 0.8336(6) -0.2891(4)
H47A H 0.9777 0.8293 -0.3281
N3A N 0.9712(7) 1.0447(4) -0.0849(3)
N8A N 1.1827(8) 1.2670(4) -0.4332(3)
N11A N 0.7516(7) 0.9961(4) -0.0309(2)
N12A N 1.3086(8) 1.3947(4) -0.4790(3)
C3A C 1.0063(8) 1.0845(5) -0.2196(3)
H3A H 0.9289 1.0475 -0.1932
C4A C 1.1515(9) 1.1727(5) -0.3941(3)
H4A H 1.0647 1.1511 -0.4029
H5A H 1.2303 1.1374 -0.4053
C8A C 0.8344(9) 0.9237(5) -0.0309(3)
H8A H 0.8034 0.8639 -0.0117
C10A C 0.8376(9) 1.0657(5) -0.0638(3)
H10A H 0.8090 1.1243 -0.0718
C12A C 1.1010(8) 1.1197(5) -0.1937(3)
C16A C 1.2117(8) 1.1767(4) -0.2351(3)
H14A H 1.2766 1.2034 -0.2194
C18A C 0.9683(9) 0.9542(6) -0.0633(3)
H16A H 1.0454 0.9189 -0.0697
C19A C 1.1312(9) 1.1587(5) -0.3241(3)
C21A C 1.2275(8) 1.1945(5) -0.2986(3)
H18A H 1.3048 1.2314 -0.3252
C28A C 1.0221(8) 1.1023(5) -0.2837(3)
H25A H 0.9576 1.0756 -0.2995
C30A C 1.0883(9) 1.3287(6) -0.4568(3)
H27A H 0.9900 1.3195 -0.4545
C32A C 1.0896(8) 1.1050(5) -0.1245(3)
H29A H 1.0785 1.1624 -0.1176
H30A H 1.1789 1.0815 -0.1119
C33A C 1.3144(10) 1.3085(5) -0.4488(3)
H31A H 1.3984 1.2801 -0.4394
C47A C 1.1685(11) 1.4069(6) -0.4845(3)
H46A H 1.1321 1.4615 -0.5046
S1A S -0.8245(3) 0.66901(15) 0.61664(10)
C57A C -0.7297(8) 0.6285(5) 0.5675(3)
N19A N -0.6589(8) 0.5989(4) 0.5344(3)
S2A S 0.4097(4) 1.29855(17) -0.12241(11)
N18A N 0.5187(8) 1.1605(5) -0.0400(3)
C58A C 0.4726(9) 1.2165(5) -0.0736(4)
S3A S -0.9347(3) 1.67743(19) -0.00020(13)
N17A N -0.7286(8) 1.7501(5) -0.1022(3)
C59A C -0.8107(10) 1.7150(8) -0.0604(4)
S4A S -0.2514(3) 1.1485(2) 0.60642(12)
N20A N -0.3454(8) 1.1039(5) 0.5140(3)
C60A C -0.3057(9) 1.1218(5) 0.5522(4)
Cd2_2 Cd -1.5000 1.5000 -0.5000
Cd2_3 Cd 1.5000 1.5000 -0.5000
Cd3_2 Cd 1.5000 1.0000 -0.5000
Cd4_2 Cd -1.0000 0.5000 0.0000
Cd4_3 Cd 0.0000 0.5000 1.0000
N4A_2 N -0.4621(7) 0.4317(4) 0.5996(3)
N7A_2 N -0.6118(7) 0.9614(4) 0.6044(3)
N9A_2 N -1.2266(7) 1.5469(5) -0.0250(3)
N10_2 N -1.0773(7) 1.4686(4) 0.1046(3)
N12A_2 N -0.6914(8) 0.3947(4) 0.5210(3)
loop_
_geom_bond_atom_site_label_1
_geom_bond_atom_site_label_2
_geom_bond_site_symmetry_1
_geom_bond_site_symmetry_2
Cd1 N6 1_555 1_555
Cd2 N4 1_555 1_555
Cd3 N7 1_555 1_555
Cd4 N9 1_555 1_555
N1 C1 1_555 1_555
N2 C11 1_555 1_555
N3 C10 1_555 1_555
N4 C29 1_555 1_555
N5 C14 1_555 1_555
N6 C11 1_555 1_555
N7 C22 1_555 1_555
N8 C4 1_555 1_555
C1 H1 1_555 1_555
N9 C1 1_555 1_555
N10 C2 1_555 1_555
N11 Cd1 1_555 1_555
N12 Cd2 1_555 1_555
C2 H2 1_555 1_555
C3 H3 1_555 1_555
C4 H4 1_555 1_555
H5 C4 1_555 1_555
C5 H6 1_555 1_555
C6 H7 1_555 1_555
C7 C5 1_555 1_555
N13 C9 1_555 1_555
C8 N11 1_555 1_555
H8 C8 1_555 1_555
C9 H9 1_555 1_555
C10 N11 1_555 1_555
H10 C10 1_555 1_555
C11 H11 1_555 1_555
N14 C42 1_555 1_555
C12 C3 1_555 1_555
C13 C17 1_555 1_555
C14 H12 1_555 1_555
H13 C14 1_555 1_555
C15 C6 1_555 1_555
C16 C12 1_555 1_555
H14 C16 1_555 1_555
N15 C20 1_555 1_555
C17 H15 1_555 1_555
C18 N3 1_555 1_555
H16 C18 1_555 1_555
C19 C4 1_555 1_555
C20 N10 1_555 1_555
H17 C20 1_555 1_555
C21 C16 1_555 1_555
H18 C21 1_555 1_555
C22 H19 1_555 1_555
C23 N5 1_555 1_555
H20 C23 1_555 1_555
C24 N2 1_555 1_555
H21 C24 1_555 1_555
C25 N6 1_555 1_555
H22 C25 1_555 1_555
C26 H23 1_555 1_555
C27 H24 1_555 1_555
C28 C3 1_555 1_555
H25 C28 1_555 1_555
C29 H26 1_555 1_555
C30 N8 1_555 1_555
H27 C30 1_555 1_555
N16 Cd3 1_555 1_555
C31 N9 1_555 1_555
H28 C31 1_555 1_555
C32 N3 1_555 1_555
H29 C32 1_555 1_555
H30 C32 1_555 1_555
C33 N8 1_555 1_555
H31 C33 1_555 1_555
C34 N2 1_555 1_555
H32 C34 1_555 1_555
H33 C34 1_555 1_555
C35 N1 1_555 1_555
H34 C35 1_555 1_555
H35 C35 1_555 1_555
C36 C27 1_555 1_555
H36 C36 1_555 1_555
C37 N5 1_555 1_555
H37 C37 1_555 1_555
C38 C46 1_555 1_555
C39 C26 1_555 1_555
C40 C6 1_555 1_555
H38 C40 1_555 1_555
C41 C2 1_555 1_555
H39 C41 1_555 1_555
C42 C39 1_555 1_555
H40 C42 1_555 1_555
H41 C42 1_555 1_555
C43 N1 1_555 1_555
H42 C43 1_555 1_555
C44 N16 1_555 1_555
H43 C44 1_555 1_555
C45 N4 1_555 1_555
H44 C45 1_555 1_555
C46 H45 1_555 1_555
C47 N12 1_555 1_555
H46 C47 1_555 1_555
C48 C5 1_555 1_555
H47 C48 1_555 1_555
C49 N13 1_555 1_555
H48 C49 1_555 1_555
C50 C13 1_555 1_555
H49 C50 1_555 1_555
C51 C26 1_555 1_555
H50 C51 1_555 1_555
C52 C27 1_555 1_555
C53 C17 1_555 1_555
H51 C53 1_555 1_555
C54 N13 1_555 1_555
H52 C54 1_555 1_555
H53 C54 1_555 1_555
C55 N14 1_555 1_555
H54 C55 1_555 1_555
C56 N15 1_555 1_555
H55 C56 1_555 1_555
H56 C56 1_555 1_555
S1 C57 1_555 1_555
S2 C58 1_555 1_555
S3 Cd4 1_555 1_555
S4 C60 1_555 1_555
N17 C59 1_555 1_555
N18 Cd1 1_555 1_555
C57 N19 1_555 1_555
C58 N18 1_555 1_555
C59 S3 1_555 1_555
N19 Cd2 1_555 1_555
N20 Cd3 1_555 1_555
C60 N20 1_555 1_555
N4A C29A 1_555 1_555
N10A Cd4 1_555 1_555
C2A N10A 1_555 1_555
H2A C2A 1_555 1_555
N14A C42A 1_555 1_555
N15A C20A 1_555 1_555
C20A N10A 1_555 1_555
H17A C20A 1_555 1_555
C26A H23A 1_555 1_555
C27A H24A 1_555 1_555
C29A H26A 1_555 1_555
C36A C27A 1_555 1_555
H36A C36A 1_555 1_555
C39A C26A 1_555 1_555
C41A C2A 1_555 1_555
H39A C41A 1_555 1_555
C42A C39A 1_555 1_555
H40A C42A 1_555 1_555
H41A C42A 1_555 1_555
C45A N4A 1_555 1_555
H44A C45A 1_555 1_555
C51A C26A 1_555 1_555
H50A C51A 1_555 1_555
C52A C27A 1_555 1_555
C55A N14A 1_555 1_555
H54A C55A 1_555 1_555
C56A N15A 1_555 1_555
H55A C56A 1_555 1_555
H56A C56A 1_555 1_555
N1A C1A 1_555 1_555
C1A H1A 1_555 1_555
N9A C1A 1_555 1_555
N13A C9A 1_555 1_555
C9A H9A 1_555 1_555
C13A C17A 1_555 1_555
C17A H15A 1_555 1_555
N16A Cd3 1_555 1_555
C31A N9A 1_555 1_555
H28A C31A 1_555 1_555
C35A N1A 1_555 1_555
H34A C35A 1_555 1_555
H35A C35A 1_555 1_555
C38A C46A 1_555 1_555
C43A N1A 1_555 1_555
H42A C43A 1_555 1_555
C44A N16A 1_555 1_555
H43A C44A 1_555 1_555
C46A H45A 1_555 1_555
C49A N13A 1_555 1_555
H48A C49A 1_555 1_555
C50A C13A 1_555 1_555
H49A C50A 1_555 1_555
C53A C17A 1_555 1_555
H51A C53A 1_555 1_555
C54A N13A 1_555 1_555
H52A C54A 1_555 1_555
H53A C54A 1_555 1_555
N2A C11A 1_555 1_555
N5A C14A 1_555 1_555
N6A Cd1 1_555 1_555
N7A C22A 1_555 1_555
C5A H6A 1_555 1_555
C6A H7A 1_555 1_555
C7A C5A 1_555 1_555
C11A N6A 1_555 1_555
H11A C11A 1_555 1_555
C14A H12A 1_555 1_555
H13A C14A 1_555 1_555
C15A C6A 1_555 1_555
C22A H19A 1_555 1_555
C23A N5A 1_555 1_555
H20A C23A 1_555 1_555
C24A N2A 1_555 1_555
H21A C24A 1_555 1_555
C25A N6A 1_555 1_555
H22A C25A 1_555 1_555
C34A N2A 1_555 1_555
H32A C34A 1_555 1_555
H33A C34A 1_555 1_555
C37A N5A 1_555 1_555
H37A C37A 1_555 1_555
C40A C6A 1_555 1_555
H38A C40A 1_555 1_555
C48A C5A 1_555 1_555
H47A C48A 1_555 1_555
N3A C10A 1_555 1_555
N8A C4A 1_555 1_555
N11A Cd1 1_555 1_555
N12A C33A 1_555 1_555
C3A H3A 1_555 1_555
C4A H4A 1_555 1_555
H5A C4A 1_555 1_555
C8A N11A 1_555 1_555
H8A C8A 1_555 1_555
C10A N11A 1_555 1_555
H10A C10A 1_555 1_555
C12A C3A 1_555 1_555
C16A C12A 1_555 1_555
H14A C16A 1_555 1_555
C18A N3A 1_555 1_555
H16A C18A 1_555 1_555
C19A C4A 1_555 1_555
C21A C16A 1_555 1_555
H18A C21A 1_555 1_555
C28A C3A 1_555 1_555
H25A C28A 1_555 1_555
C30A N8A 1_555 1_555
H27A C30A 1_555 1_555
C32A N3A 1_555 1_555
H29A C32A 1_555 1_555
H30A C32A 1_555 1_555
C33A N8A 1_555 1_555
H31A C33A 1_555 1_555
C47A N12A 1_555 1_555
H46A C47A 1_555 1_555
S1A C57A 1_555 1_555
C57A N19A 1_555 1_555
N19A Cd2 1_555 1_555
S2A C58A 1_555 1_555
N18A Cd1 1_555 1_555
C58A N18A 1_555 1_555
S3A Cd4 1_555 1_555
N17A C59A 1_555 1_555
C59A S3A 1_555 1_555
S4A C60A 1_555 1_555
N20A Cd3 1_555 1_555
C60A N20A 1_555 1_555
Cd2_2 N4A 1_555 1_555
Cd2_3 N12A 1_555 1_555
Cd3_2 N7A 1_555 1_555
Cd4_2 N10 1_555 1_555
Cd4_3 N9A 1_555 1_555
N4A_2 Cd2 1_555 1_555
N7A_2 Cd3 1_555 1_555
N9A_2 Cd4 1_555 1_555
N10_2 Cd4 1_555 1_555
N12A_2 Cd2 1_555 1_555
N7 C23 1_555 1_555
N12 C33 1_555 1_555
C7 C34 1_555 1_555
C7 C40 1_555 1_555
C8 C18 1_555 1_555
C9 N16 1_555 1_555
N14 C45 1_555 1_555
C12 C32 1_555 1_555
C13 C35 1_555 1_555
C14 C15 1_555 1_555
C15 C48 1_555 1_555
N15 C41 1_555 1_555
C19 C21 1_555 1_555
C19 C28 1_555 1_555
C22 C37 1_555 1_555
C24 C25 1_555 1_555
C29 C55 1_555 1_555
C30 C47 1_555 1_555
C31 C43 1_555 1_555
C36 C39 1_555 1_555
C38 C53 1_555 1_555
C38 C54 1_555 1_555
C44 C49 1_555 1_555
C46 C50 1_555 1_555
C51 C52 1_555 1_555
C52 C56 1_555 1_555
N14A C45A 1_555 1_555
N15A C41A 1_555 1_555
C29A C55A 1_555 1_555
C36A C39A 1_555 1_555
C51A C52A 1_555 1_555
C52A C56A 1_555 1_555
C9A N16A 1_555 1_555
C13A C35A 1_555 1_555
C31A C43A 1_555 1_555
C38A C53A 1_555 1_555
C38A C54A 1_555 1_555
C44A C49A 1_555 1_555
C46A C50A 1_555 1_555
N7A C23A 1_555 1_555
C7A C34A 1_555 1_555
C7A C40A 1_555 1_555
C14A C15A 1_555 1_555
C15A C48A 1_555 1_555
C22A C37A 1_555 1_555
C24A C25A 1_555 1_555
C8A C18A 1_555 1_555
C12A C32A 1_555 1_555
C19A C21A 1_555 1_555
C19A C28A 1_555 1_555
C30A C47A 1_555 1_555

#END
