
#######################################################################
#
#                 Cambridge Crystallographic Data Centre
#                                CCDC 
#
#######################################################################
#
# If this CIF has been generated from an entry in the Cambridge 
# Structural Database, then it will include bibliographic, chemical, 
# crystal, experimental, refinement or atomic coordinate data resulting 
# from the CCDC's data processing and validation procedures.
#
#######################################################################

data_ZIRKAO
_symmetry_cell_setting           orthorhombic
_symmetry_space_group_name_H-M   'C 2 2 21'
_symmetry_Int_Tables_number      20
_space_group_name_Hall           'C 2n 2'
loop_
_symmetry_equiv_pos_site_id
_symmetry_equiv_pos_as_xyz
1 x,y,z
2 -x,-y,1/2+z
3 x,-y,-z
4 -x,y,1/2-z
5 1/2+x,1/2+y,z
6 1/2-x,1/2-y,1/2+z
7 1/2+x,1/2-y,-z
8 1/2-x,1/2+y,1/2-z
_cell_length_a                   22.934(4)
_cell_length_b                   30.885(5)
_cell_length_c                   10.5055(18)
_cell_angle_alpha                90
_cell_angle_beta                 90
_cell_angle_gamma                90
_cell_volume                     7441.22
loop_
_atom_site_label
_atom_site_type_symbol
_atom_site_fract_x
_atom_site_fract_y
_atom_site_fract_z
O7 O 0.5000 0.02209(10) -0.2500
H33 H 0.4778(14) 0.0117(11) -0.212(3)
H33C H 0.5222(14) 0.0117(11) -0.288(3)
C1 C 0.23140(10) 0.14655(8) -0.0805(2)
C2 C 0.18475(11) 0.14187(8) 0.0011(2)
C3 C 0.14057(10) 0.17444(8) 0.0110(2)
C4 C 0.14640(10) 0.21103(8) -0.0622(2)
H1 H 0.1179 0.2332 -0.0549
C5 C 0.19335(10) 0.21683(8) -0.1481(2)
C6 C 0.19845(11) 0.25468(8) -0.2231(2)
H2 H 0.1705 0.2771 -0.2138
C7 C 0.24304(12) 0.25961(9) -0.3090(3)
H3 H 0.2464 0.2854 -0.3578
C8 C 0.28405(11) 0.22554(9) -0.3238(3)
H4 H 0.3143 0.2283 -0.3850
C9 C 0.28075(10) 0.18916(8) -0.2520(3)
H5 H 0.3090 0.1670 -0.2630
C10 C 0.23546(10) 0.18366(8) -0.1598(2)
C11 C 0.27634(10) 0.11128(8) -0.0861(2)
C12 C 0.32567(10) 0.11399(8) -0.0134(2)
C13 C 0.36761(10) 0.08005(8) -0.0115(2)
C14 C 0.35925(10) 0.04472(8) -0.0885(2)
H6 H 0.3876 0.0223 -0.0899
C15 C 0.30876(11) 0.04116(8) -0.1663(2)
C16 C 0.29952(10) 0.00368(7) -0.2460(3)
H7 H 0.3276 -0.0190 -0.2471
C17 C 0.25088(12) 0.00065(9) -0.3193(3)
H8 H 0.2461 -0.0235 -0.3742
C18 C 0.20738(11) 0.03299(9) -0.3149(2)
H9 H 0.1728 0.0298 -0.3638
C19 C 0.21500(10) 0.06938(8) -0.2395(3)
H10 H 0.1858 0.0912 -0.2380
C20 C 0.26643(10) 0.07448(8) -0.1639(2)
C21 C 0.08746(11) 0.16897(9) 0.0936(2)
C22 C 0.19784(15) 0.10857(12) 0.2023(3)
H11 H 0.2386 0.1179 0.2079
H12 H 0.1933 0.0806 0.2453
H13 H 0.1727 0.1301 0.2433
C23 C 0.41941(10) 0.07859(8) 0.0773(2)
C24 C 0.36738(11) 0.18347(9) 0.0149(3)
H14 H 0.4018 0.1711 -0.0268
H15 H 0.3798 0.2029 0.0835
H16 H 0.3444 0.1998 -0.0475
C25 C -0.06007(13) 0.15450(10) 0.0402(3)
H17 H -0.0253 0.1378 0.0398
C26 C -0.10473(16) 0.14292(13) -0.0417(4)
H18 H -0.1005 0.1191 -0.0983
C27 C -0.15572(14) 0.16688(12) -0.0389(3)
H19 H -0.1872 0.1595 -0.0935
C28 C -0.16057(13) 0.20092(11) 0.0419(3)
H20 H -0.1952 0.2177 0.0447
C29 C -0.11383(12) 0.21057(10) 0.1204(3)
H21 H -0.1174 0.2343 0.1774
C30 C 0.04221(12) 0.29901(9) 0.1924(3)
H22 H 0.0726 0.2835 0.1511
C31 C 0.04398(14) 0.34425(9) 0.1898(3)
H23 H 0.0748 0.3589 0.1474
C32 C 0.0000 0.36746(12) 0.2500
H24 H 0.0000 0.3982 0.2500
C33 C 0.50235(13) 0.20653(8) 0.1417(2)
H25 H 0.5044 0.1909 0.0639
C34 C 0.50187(14) 0.25177(8) 0.1366(3)
H26 H 0.5028 0.2667 0.0575
C35 C 0.5000 0.27392(11) 0.2500
H27 H 0.5000 0.3047 0.2500
C36 C 0.61730(11) 0.12420(9) 0.1441(3)
H28 H 0.6192 0.1456 0.2089
C37 C 0.66605(12) 0.11736(10) 0.0670(3)
H29 H 0.7001 0.1345 0.0775
C38 C 0.66408(12) 0.08558(10) -0.0243(3)
H30 H 0.6971 0.0800 -0.0764
C39 C 0.61330(12) 0.06183(9) -0.0393(3)
H31 H 0.6107 0.0400 -0.1027
C40 C 0.56624(12) 0.07063(9) 0.0401(3)
H32 H 0.5315 0.0541 0.0307
O1 O 0.18152(8) 0.10422(6) 0.07079(18)
O2 O 0.06111(7) 0.20448(6) 0.12033(17)
O3 O 0.07151(9) 0.13284(6) 0.1306(2)
O4 O 0.33241(8) 0.14923(6) 0.06694(17)
O5 O 0.44515(7) 0.11438(6) 0.10581(16)
O6 O 0.43473(8) 0.04286(6) 0.12045(19)
N1 N -0.06375(10) 0.18811(7) 0.1199(2)
N2 N 0.0000 0.27644(9) 0.2500
N3 N 0.5000 0.18430(9) 0.2500
N4 N 0.56817(9) 0.10163(7) 0.12972(19)
Cu1 Cu 0.0000 0.200874(13) 0.2500
Cu2 Cu 0.5000 0.111438(12) 0.2500
C30C C -0.04221(12) 0.29901(9) 0.3076(3)
H22C H -0.0726 0.2835 0.3489
C31C C -0.04398(14) 0.34425(9) 0.3102(3)
H23C H -0.0748 0.3589 0.3526
C33C C 0.49765(13) 0.20653(8) 0.3583(2)
H25C H 0.4956 0.1909 0.4361
C34C C 0.49813(14) 0.25177(8) 0.3634(3)
H26C H 0.4972 0.2667 0.4425
C1C C -0.23140(10) 0.14655(8) 0.5805(2)
C2C C -0.18475(11) 0.14187(8) 0.4989(2)
C3C C -0.14057(10) 0.17444(8) 0.4890(2)
C4C C -0.14640(10) 0.21103(8) 0.5622(2)
H1C H -0.1179 0.2332 0.5549
C5C C -0.19335(10) 0.21683(8) 0.6481(2)
C6C C -0.19845(11) 0.25468(8) 0.7231(2)
H2C H -0.1705 0.2771 0.7138
C7C C -0.24304(12) 0.25961(9) 0.8090(3)
H3C H -0.2464 0.2854 0.8578
C8C C -0.28405(11) 0.22554(9) 0.8238(3)
H4C H -0.3143 0.2283 0.8850
C9C C -0.28075(10) 0.18916(8) 0.7520(3)
H5C H -0.3090 0.1670 0.7630
C10C C -0.23546(10) 0.18366(8) 0.6598(2)
C11C C -0.27634(10) 0.11128(8) 0.5861(2)
C12C C -0.32567(10) 0.11399(8) 0.5134(2)
C13C C -0.36761(10) 0.08005(8) 0.5115(2)
C14C C -0.35925(10) 0.04472(8) 0.5885(2)
H6C H -0.3876 0.0223 0.5899
C15C C -0.30876(11) 0.04116(8) 0.6663(2)
C16C C -0.29952(10) 0.00368(7) 0.7460(3)
H7C H -0.3276 -0.0190 0.7471
C17C C -0.25088(12) 0.00065(9) 0.8193(3)
H8C H -0.2461 -0.0235 0.8742
C18C C -0.20738(11) 0.03299(9) 0.8149(2)
H9C H -0.1728 0.0298 0.8638
C19C C -0.21500(10) 0.06938(8) 0.7395(3)
H10C H -0.1858 0.0912 0.7380
C20C C -0.26643(10) 0.07448(8) 0.6639(2)
C21C C -0.08746(11) 0.16897(9) 0.4064(2)
C22C C -0.19784(15) 0.10857(12) 0.2977(3)
H11C H -0.2386 0.1179 0.2921
H12C H -0.1933 0.0806 0.2547
H13C H -0.1727 0.1301 0.2567
C23C C -0.41941(10) 0.07859(8) 0.4227(2)
C24C C -0.36738(11) 0.18347(9) 0.4851(3)
H14C H -0.4018 0.1711 0.5268
H15C H -0.3798 0.2029 0.4165
H16C H -0.3444 0.1998 0.5475
C25C C 0.06007(13) 0.15450(10) 0.4598(3)
H17C H 0.0253 0.1378 0.4602
C26C C 0.10473(16) 0.14292(13) 0.5417(4)
H18C H 0.1005 0.1191 0.5983
C27C C 0.15572(14) 0.16688(12) 0.5389(3)
H19C H 0.1872 0.1595 0.5935
C28C C 0.16057(13) 0.20092(11) 0.4581(3)
H20C H 0.1952 0.2177 0.4553
C29C C 0.11383(12) 0.21057(10) 0.3796(3)
H21C H 0.1174 0.2343 0.3226
O1C O -0.18152(8) 0.10422(6) 0.42921(18)
O2C O -0.06111(7) 0.20448(6) 0.37967(17)
O3C O -0.07151(9) 0.13284(6) 0.3694(2)
O4C O -0.33241(8) 0.14923(6) 0.43306(17)
O5C O -0.44515(7) 0.11438(6) 0.39419(16)
O6C O -0.43473(8) 0.04286(6) 0.37955(19)
N1C N 0.06375(10) 0.18811(7) 0.3801(2)
C36C C 0.38270(11) 0.12420(9) 0.3559(3)
H28C H 0.3808 0.1456 0.2911
C37C C 0.33395(12) 0.11736(10) 0.4330(3)
H29C H 0.2999 0.1345 0.4225
C38C C 0.33592(12) 0.08558(10) 0.5243(3)
H30C H 0.3029 0.0800 0.5764
C39C C 0.38670(12) 0.06183(9) 0.5393(3)
H31C H 0.3893 0.0400 0.6027
C40C C 0.43376(12) 0.07063(9) 0.4599(3)
H32C H 0.4685 0.0541 0.4693
N4C N 0.43183(9) 0.10163(7) 0.37028(19)
O5C_2 O 0.55485(7) 0.11438(6) 0.39419(16)
Cu2_2 Cu -0.5000 0.111438(12) 0.2500
C41? C 0.0820(4) 0.0478(4) 0.1720(9)
H34? H 0.1162 0.0437 0.2215
N5? N 0.0825(4) 0.0411(3) 0.0422(10)
C42? C 0.0424(5) 0.0607(5) -0.0484(10)
H35? H 0.0501 0.0493 -0.1338
H36? H 0.0478 0.0922 -0.0485
H37? H 0.0022 0.0539 -0.0239
C43? C 0.1258(5) 0.0148(5) -0.0208(15)
H38? H 0.1557 0.0335 -0.0584
H39? H 0.1071 -0.0023 -0.0881
H40? H 0.1439 -0.0047 0.0411
O8? O 0.0345(6) 0.0596(3) 0.2234(10)
loop_
_geom_bond_atom_site_label_1
_geom_bond_atom_site_label_2
_geom_bond_site_symmetry_1
_geom_bond_site_symmetry_2
C1 C2 1_555 1_555
C2 C3 1_555 1_555
C3 C4 1_555 1_555
C4 H1 1_555 1_555
C5 C4 1_555 1_555
C6 C5 1_555 1_555
H2 C6 1_555 1_555
C7 C6 1_555 1_555
H3 C7 1_555 1_555
C8 C7 1_555 1_555
H4 C8 1_555 1_555
C9 C8 1_555 1_555
H5 C9 1_555 1_555
C10 C1 1_555 1_555
C11 C1 1_555 1_555
C12 C11 1_555 1_555
C13 C12 1_555 1_555
C14 C13 1_555 1_555
H6 C14 1_555 1_555
C15 C14 1_555 1_555
C16 C15 1_555 1_555
H7 C16 1_555 1_555
C17 C16 1_555 1_555
H8 C17 1_555 1_555
C18 C17 1_555 1_555
H9 C18 1_555 1_555
C19 C18 1_555 1_555
H10 C19 1_555 1_555
C20 C11 1_555 1_555
C21 C3 1_555 1_555
C22 H11 1_555 1_555
H12 C22 1_555 1_555
H13 C22 1_555 1_555
C23 C13 1_555 1_555
C24 H14 1_555 1_555
H15 C24 1_555 1_555
H16 C24 1_555 1_555
C25 H17 1_555 1_555
C26 C25 1_555 1_555
H18 C26 1_555 1_555
C27 C26 1_555 1_555
H19 C27 1_555 1_555
C28 C27 1_555 1_555
H20 C28 1_555 1_555
C29 C28 1_555 1_555
H21 C29 1_555 1_555
C30 H22 1_555 1_555
C31 C30 1_555 1_555
H23 C31 1_555 1_555
C32 C31 1_555 1_555
H24 C32 1_555 1_555
C33 H25 1_555 1_555
C34 C33 1_555 1_555
H26 C34 1_555 1_555
C35 C34 1_555 1_555
H27 C35 1_555 1_555
C36 H28 1_555 1_555
C37 C36 1_555 1_555
H29 C37 1_555 1_555
C38 C37 1_555 1_555
H30 C38 1_555 1_555
C39 C38 1_555 1_555
H31 C39 1_555 1_555
C40 C39 1_555 1_555
H32 C40 1_555 1_555
O1 C2 1_555 1_555
O2 C21 1_555 1_555
O3 C21 1_555 1_555
O4 C12 1_555 1_555
O5 C23 1_555 1_555
O6 C23 1_555 1_555
N1 C25 1_555 1_555
N2 C30 1_555 1_555
N3 C33 1_555 1_555
N4 C36 1_555 1_555
Cu1 O2 1_555 1_555
Cu2 O5 1_555 1_555
O7 H33 1_555 1_555
C30C N2 1_555 1_555
H22C C30C 1_555 1_555
C31C C32 1_555 1_555
H23C C31C 1_555 1_555
C33C N3 1_555 1_555
H25C C33C 1_555 1_555
C34C C35 1_555 1_555
H26C C34C 1_555 1_555
C1C C2C 1_555 1_555
C2C C3C 1_555 1_555
C3C C4C 1_555 1_555
C4C H1C 1_555 1_555
C5C C4C 1_555 1_555
C6C C5C 1_555 1_555
H2C C6C 1_555 1_555
C7C C6C 1_555 1_555
H3C C7C 1_555 1_555
C8C C7C 1_555 1_555
H4C C8C 1_555 1_555
C9C C8C 1_555 1_555
H5C C9C 1_555 1_555
C10C C1C 1_555 1_555
C11C C1C 1_555 1_555
C12C C11C 1_555 1_555
C13C C12C 1_555 1_555
C14C C13C 1_555 1_555
H6C C14C 1_555 1_555
C15C C14C 1_555 1_555
C16C C15C 1_555 1_555
H7C C16C 1_555 1_555
C17C C16C 1_555 1_555
H8C C17C 1_555 1_555
C18C C17C 1_555 1_555
H9C C18C 1_555 1_555
C19C C18C 1_555 1_555
H10C C19C 1_555 1_555
C20C C11C 1_555 1_555
C21C C3C 1_555 1_555
C22C H11C 1_555 1_555
H12C C22C 1_555 1_555
H13C C22C 1_555 1_555
C23C C13C 1_555 1_555
C24C H14C 1_555 1_555
H15C C24C 1_555 1_555
H16C C24C 1_555 1_555
C25C H17C 1_555 1_555
C26C C25C 1_555 1_555
H18C C26C 1_555 1_555
C27C C26C 1_555 1_555
H19C C27C 1_555 1_555
C28C C27C 1_555 1_555
H20C C28C 1_555 1_555
C29C C28C 1_555 1_555
H21C C29C 1_555 1_555
O1C C2C 1_555 1_555
O2C Cu1 1_555 1_555
O3C C21C 1_555 1_555
O4C C12C 1_555 1_555
O5C C23C 1_555 1_555
O6C C23C 1_555 1_555
N1C Cu1 1_555 1_555
C36C H28C 1_555 1_555
C37C C36C 1_555 1_555
H29C C37C 1_555 1_555
C38C C37C 1_555 1_555
H30C C38C 1_555 1_555
C39C C38C 1_555 1_555
H31C C39C 1_555 1_555
C40C C39C 1_555 1_555
H32C C40C 1_555 1_555
N4C Cu2 1_555 1_555
O5C_2 Cu2 1_555 1_555
Cu2_2 O5C 1_555 1_555
H33C O7 1_555 1_555
C5 C10 1_555 1_555
C9 C10 1_555 1_555
C15 C20 1_555 1_555
C19 C20 1_555 1_555
C22 O1 1_555 1_555
C24 O4 1_555 1_555
C29 N1 1_555 1_555
C40 N4 1_555 1_555
N1 Cu1 1_555 1_555
N2 Cu1 1_555 1_555
N3 Cu2 1_555 1_555
N4 Cu2 1_555 1_555
C30C C31C 1_555 1_555
C33C C34C 1_555 1_555
C5C C10C 1_555 1_555
C9C C10C 1_555 1_555
C15C C20C 1_555 1_555
C19C C20C 1_555 1_555
C21C O2C 1_555 1_555
C22C O1C 1_555 1_555
C24C O4C 1_555 1_555
C25C N1C 1_555 1_555
C29C N1C 1_555 1_555
C36C N4C 1_555 1_555
C40C N4C 1_555 1_555

#END
