
#######################################################################
#
#                 Cambridge Crystallographic Data Centre
#                                CCDC 
#
#######################################################################
#
# If this CIF has been generated from an entry in the Cambridge 
# Structural Database, then it will include bibliographic, chemical, 
# crystal, experimental, refinement or atomic coordinate data resulting 
# from the CCDC's data processing and validation procedures.
#
#######################################################################

data_ZIRNOF
_symmetry_cell_setting           orthorhombic
_symmetry_space_group_name_H-M   'P b c a'
_symmetry_Int_Tables_number      61
_space_group_name_Hall           '-P 2ac 2ab'
loop_
_symmetry_equiv_pos_site_id
_symmetry_equiv_pos_as_xyz
1 x,y,z
2 1/2-x,-y,1/2+z
3 1/2+x,1/2-y,-z
4 -x,1/2+y,1/2-z
5 -x,-y,-z
6 1/2+x,y,1/2-z
7 1/2-x,1/2+y,z
8 x,1/2-y,1/2+z
_cell_length_a                   12.774(5)
_cell_length_b                   16.818(6)
_cell_length_c                   12.140(5)
_cell_angle_alpha                90
_cell_angle_beta                 90
_cell_angle_gamma                90
_cell_volume                     2608.07
loop_
_atom_site_label
_atom_site_type_symbol
_atom_site_fract_x
_atom_site_fract_y
_atom_site_fract_z
Ni1 Ni 0.59201(8) 0.09870(6) 0.13513(9)
O1 O 0.6646(4) 0.0910(3) -0.0015(5)
O2 O 0.5674(4) -0.0137(3) 0.1497(5)
H1 H 0.5547 -0.0472 0.2026
H2 H 0.5810 -0.0449 0.0917
O3 O 0.5870(4) -0.0876(3) -0.0426(5)
O4 O 0.7482(4) -0.0989(3) -0.2518(5)
O5 O 0.8211(4) 0.0796(3) -0.2016(5)
N1 N 0.6076(5) 0.2145(4) 0.1298(6)
N2 N 0.5219(5) 0.1275(4) 0.2739(6)
C1 C 0.6626(6) 0.2542(5) 0.0512(8)
H3 H 0.6918 0.2259 -0.0091
C2 C 0.6762(6) 0.3354(5) 0.0589(8)
H4 H 0.7161 0.3630 0.0050
C3 C 0.6318(6) 0.3758(5) 0.1445(9)
H5 H 0.6400 0.4318 0.1502
C4 C 0.5754(6) 0.3352(5) 0.2221(8)
H6 H 0.5448 0.3627 0.2824
C5 C 0.5638(6) 0.2557(5) 0.2121(8)
C6 C 0.5127(6) 0.2046(6) 0.2947(8)
C7 C 0.4625(7) 0.2323(6) 0.3869(8)
H7 H 0.4560 0.2878 0.3993
C8 C 0.4219(7) 0.1793(6) 0.4606(8)
H8 H 0.3860 0.1976 0.5243
C9 C 0.4335(6) 0.1008(7) 0.4421(8)
H9 H 0.4077 0.0625 0.4929
C10 C 0.4837(6) 0.0779(5) 0.3472(8)
H10 H 0.4914 0.0226 0.3337
C11 C 0.6860(6) 0.0359(5) -0.0669(7)
C12 C 0.6502(6) -0.0429(5) -0.0889(7)
C13 C 0.7238(6) -0.0490(5) -0.1821(8)
C14 C 0.7576(7) 0.0323(5) -0.1595(7)
Ni1A Ni 0.90799(8) -0.09870(6) -0.36487(9)
Ni1D Ni 0.40799(8) -0.09870(6) -0.13513(9)
O3D O 0.4130(4) 0.0876(3) 0.0426(5)
O4A O 0.7518(4) 0.0989(3) 0.2482(5)
O6 O 0.2952(5) 0.2514(3) 0.1670(5)
H11 H 0.2477 0.2862 0.1583
H12 H 0.2659 0.2060 0.1666
loop_
_geom_bond_atom_site_label_1
_geom_bond_atom_site_label_2
_geom_bond_site_symmetry_1
_geom_bond_site_symmetry_2
Ni1 O1 1_555 1_555
O1 C11 1_555 1_555
O2 Ni1 1_555 1_555
H1 O2 1_555 1_555
H2 O2 1_555 1_555
O3 C12 1_555 1_555
O4 C13 1_555 1_555
O5 C14 1_555 1_555
N1 Ni1 1_555 1_555
N2 Ni1 1_555 1_555
C1 N1 1_555 1_555
H3 C1 1_555 1_555
C2 C1 1_555 1_555
H4 C2 1_555 1_555
C3 C2 1_555 1_555
H5 C3 1_555 1_555
C4 C3 1_555 1_555
H6 C4 1_555 1_555
C5 N1 1_555 1_555
C6 N2 1_555 1_555
C7 C6 1_555 1_555
H7 C7 1_555 1_555
C8 C7 1_555 1_555
H8 C8 1_555 1_555
C9 C8 1_555 1_555
H9 C9 1_555 1_555
C10 N2 1_555 1_555
H10 C10 1_555 1_555
C11 C12 1_555 1_555
C12 C13 1_555 1_555
C13 C14 1_555 1_555
C14 C11 1_555 1_555
O6 H11 1_555 1_555
H12 O6 1_555 1_555
Ni1A O4 1_555 1_555
Ni1D O3 1_555 1_555
O3D Ni1 1_555 1_555
O4A Ni1 1_555 1_555
C4 C5 1_555 1_555
C5 C6 1_555 1_555
C9 C10 1_555 1_555

#END
