
#######################################################################
#
#                 Cambridge Crystallographic Data Centre
#                                CCDC 
#
#######################################################################
#
# If this CIF has been generated from an entry in the Cambridge 
# Structural Database, then it will include bibliographic, chemical, 
# crystal, experimental, refinement or atomic coordinate data resulting 
# from the CCDC's data processing and validation procedures.
#
#######################################################################

data_ZIRVAZ
_symmetry_cell_setting           triclinic
_symmetry_space_group_name_H-M   'P -1'
_symmetry_Int_Tables_number      2
_space_group_name_Hall           '-P 1'
loop_
_symmetry_equiv_pos_site_id
_symmetry_equiv_pos_as_xyz
1 x,y,z
2 -x,-y,-z
_cell_length_a                   6.7619(10)
_cell_length_b                   7.4498(11)
_cell_length_c                   25.430(4)
_cell_angle_alpha                92.226(3)
_cell_angle_beta                 90.365(3)
_cell_angle_gamma                90.235(3)
_cell_volume                     1280.03
loop_
_atom_site_label
_atom_site_type_symbol
_atom_site_fract_x
_atom_site_fract_y
_atom_site_fract_z
Mn1 Mn 0.5000 0.5000 0.0000
Mn2 Mn 1.0000 1.0000 0.0000
O1 O 0.5829(5) 0.2532(4) 0.03806(12)
O2 O 0.9201(5) 0.7522(4) 0.03810(12)
O3 O 1.2881(5) 0.9923(4) 0.03973(13)
O4 O 0.8819(5) 0.1654(5) 0.06409(12)
O5 O 0.2133(5) 0.4912(4) 0.04014(13)
O6 O 0.6221(5) 0.6659(4) 0.06461(13)
C1 C 0.7927(7) 0.7250(5) 0.07433(17)
C2 C 0.7143(7) 0.2265(6) 0.07414(18)
C3 C 0.8537(7) 0.7630(6) 0.13038(18)
C4 C 0.6555(7) 0.2639(6) 0.13047(17)
C5 C 0.7180(8) 0.7410(6) 0.17016(18)
H1 H 0.5898 0.7031 0.1619
C6 C 0.7924(8) 0.2358(6) 0.17029(19)
H2 H 0.9188 0.1963 0.1617
C7 C 0.4173(8) 0.3561(7) 0.1957(2)
H3 H 0.2908 0.3952 0.2044
C8 C 0.4683(7) 0.3243(7) 0.14358(19)
H4 H 0.3760 0.3436 0.1171
C9 C 0.9615(9) 0.8344(6) 0.23366(19)
C10 C 0.5548(9) 0.3295(6) 0.23433(19)
C11 C 1.0967(9) 0.8542(7) 0.1949(2)
H5 H 1.2249 0.8909 0.2033
C12 C 0.7427(9) 0.2658(7) 0.2227(2)
H6 H 0.8331 0.2439 0.2494
C13 C 0.7727(9) 0.7753(7) 0.2225(2)
H7 H 0.6829 0.7585 0.2494
O7 O 1.2435(7) 0.4757(5) 0.48754(15)
O8 O 1.1468(7) 0.2420(5) 0.43563(15)
C14 C 1.0434(8) 0.8196(7) 0.14282(19)
H8 H 1.1352 0.8346 0.1163
O9 O 0.6352(7) -0.2597(5) 0.44067(15)
O10 O 0.7447(7) -0.0264(5) 0.49113(15)
O11 O 1.0155(7) 0.8907(5) 0.28489(13)
O12 O 0.5035(7) 0.3762(5) 0.28583(13)
C15 C 0.6696(9) -0.0917(8) 0.4487(2)
C16 C 1.1270(8) 0.7175(7) 0.4118(2)
H9 H 1.1559 0.7634 0.4455
C17 C 0.6443(9) 0.2140(7) 0.4138(2)
H10 H 0.6839 0.2612 0.4467
C18 C 0.6224(8) 0.0306(7) 0.4057(2)
C19 C 1.0817(9) 0.4669(7) 0.3518(2)
H11 H 1.0787 0.3434 0.3449
C20 C 0.5181(9) 0.0748(7) 0.3167(2)
H12 H 0.4729 0.0292 0.2842
C21 C 0.5576(9) -0.0400(7) 0.3571(2)
H13 H 0.5410 -0.1634 0.3517
C22 C 1.0419(9) 0.5814(7) 0.3120(2)
H14 H 1.0121 0.5358 0.2783
C23 C 1.1260(8) 0.5344(7) 0.40190(19)
C24 C 1.0861(9) 0.8323(7) 0.3726(2)
H15 H 1.0848 0.9557 0.3797
C25 C 1.1743(9) 0.4110(8) 0.4447(2)
C26 C 1.0466(8) 0.7643(7) 0.32241(19)
C27 C 0.5466(8) 0.2573(7) 0.32513(19)
C28 C 0.6073(9) 0.3277(8) 0.3730(2)
H16 H 0.6236 0.4512 0.3782
O1A O 0.4171(5) 0.7468(4) -0.03806(12)
O2A O 0.0799(5) 0.2478(4) -0.03810(12)
O4A O 0.1181(5) 0.8346(5) -0.06409(12)
O5A O 0.7867(5) 0.5088(4) -0.04014(13)
O6A O 0.3779(5) 0.3341(4) -0.06461(13)
C1A C 0.2073(7) 0.2750(5) -0.07433(17)
C2A C 0.2857(7) 0.7735(6) -0.07414(18)
C3A C 0.1463(7) 0.2370(6) -0.13038(18)
C4A C 0.3445(7) 0.7361(6) -0.13047(17)
C5A C 0.2820(8) 0.2590(6) -0.17016(18)
H1A H 0.4102 0.2969 -0.1619
C6A C 0.2076(8) 0.7642(6) -0.17029(19)
H2A H 0.0812 0.8037 -0.1617
C7A C 0.5827(8) 0.6439(7) -0.1957(2)
H3A H 0.7092 0.6048 -0.2044
C8A C 0.5317(7) 0.6757(7) -0.14358(19)
H4A H 0.6240 0.6564 -0.1171
C9A C 0.0385(9) 0.1656(6) -0.23366(19)
C10A C 0.4452(9) 0.6705(6) -0.23433(19)
C11A C -0.0967(9) 0.1458(7) -0.1949(2)
H5A H -0.2249 0.1091 -0.2033
C12A C 0.2573(9) 0.7342(7) -0.2227(2)
H6A H 0.1669 0.7561 -0.2494
C13A C 0.2273(9) 0.2247(7) -0.2225(2)
H7A H 0.3171 0.2415 -0.2494
O7A O -0.2435(7) 0.5243(5) -0.48754(15)
O8A O -0.1468(7) 0.7580(5) -0.43563(15)
C14A C -0.0434(8) 0.1804(7) -0.14282(19)
H8A H -0.1352 0.1654 -0.1163
O9A O 0.3648(7) 1.2597(5) -0.44067(15)
O10A O 0.2553(7) 1.0264(5) -0.49113(15)
O11A O -0.0155(7) 0.1093(5) -0.28489(13)
O12A O 0.4965(7) 0.6238(5) -0.28583(13)
C15A C 0.3304(9) 1.0917(8) -0.4487(2)
C16A C -0.1270(8) 0.2825(7) -0.4118(2)
H9A H -0.1559 0.2366 -0.4455
C17A C 0.3557(9) 0.7860(7) -0.4138(2)
H10A H 0.3161 0.7388 -0.4467
C18A C 0.3776(8) 0.9694(7) -0.4057(2)
C19A C -0.0817(9) 0.5331(7) -0.3518(2)
H11A H -0.0787 0.6566 -0.3449
C20A C 0.4819(9) 0.9252(7) -0.3167(2)
H12A H 0.5271 0.9708 -0.2842
C21A C 0.4424(9) 1.0400(7) -0.3571(2)
H13A H 0.4590 1.1634 -0.3517
C22A C -0.0419(9) 0.4186(7) -0.3120(2)
H14A H -0.0121 0.4642 -0.2783
C23A C -0.1260(8) 0.4656(7) -0.40190(19)
C24A C -0.0861(9) 0.1677(7) -0.3726(2)
H15A H -0.0848 0.0443 -0.3797
C25A C -0.1743(9) 0.5890(8) -0.4447(2)
C26A C -0.0466(8) 0.2357(7) -0.32241(19)
C27A C 0.4534(8) 0.7427(7) -0.32513(19)
C28A C 0.3927(9) 0.6723(8) -0.3730(2)
H16A H 0.3764 0.5488 -0.3782
O3A O 0.7119(5) 1.0077(4) -0.03973(13)
Mn2_2 Mn 0.0000 0.0000 0.0000
Mn2_3 Mn 0.0000 1.0000 0.0000
Mn2_4 Mn 1.0000 0.0000 0.0000
O2A_2 O 1.0799(5) 1.2478(4) -0.03810(12)
O4_2 O 0.8819(5) 1.1654(5) 0.06409(12)
O4A_2 O 1.1181(5) 0.8346(5) -0.06409(12)
loop_
_geom_bond_atom_site_label_1
_geom_bond_atom_site_label_2
_geom_bond_site_symmetry_1
_geom_bond_site_symmetry_2
Mn1 O1 1_555 1_555
Mn2 O2 1_555 1_555
O1 C2 1_555 1_555
O2 C1 1_555 1_555
O3 Mn2 1_555 1_555
O4 C2 1_555 1_555
O5 Mn1 1_555 1_555
O6 Mn1 1_555 1_555
C1 O6 1_555 1_555
C2 C4 1_555 1_555
C3 C1 1_555 1_555
C4 C6 1_555 1_555
C5 C3 1_555 1_555
H1 C5 1_555 1_555
C6 H2 1_555 1_555
C7 H3 1_555 1_555
C8 C4 1_555 1_555
H4 C8 1_555 1_555
C9 C11 1_555 1_555
C10 C7 1_555 1_555
C11 H5 1_555 1_555
C12 C6 1_555 1_555
H6 C12 1_555 1_555
C13 C5 1_555 1_555
H7 C13 1_555 1_555
O7 C25 1_555 1_555
O8 C25 1_555 1_555
C14 C3 1_555 1_555
H8 C14 1_555 1_555
O9 C15 1_555 1_555
O10 C15 1_555 1_555
O11 C9 1_555 1_555
O12 C10 1_555 1_555
C15 C18 1_555 1_555
C16 H9 1_555 1_555
C17 H10 1_555 1_555
C18 C17 1_555 1_555
C19 H11 1_555 1_555
C20 H12 1_555 1_555
C21 C18 1_555 1_555
H13 C21 1_555 1_555
C22 C19 1_555 1_555
H14 C22 1_555 1_555
C23 C16 1_555 1_555
C24 C16 1_555 1_555
H15 C24 1_555 1_555
C25 C23 1_555 1_555
C26 O11 1_555 1_555
C27 O12 1_555 1_555
C28 C17 1_555 1_555
H16 C28 1_555 1_555
O1A Mn1 1_555 1_555
O2A C1A 1_555 1_555
O4A C2A 1_555 1_555
O5A Mn1 1_555 1_555
O6A Mn1 1_555 1_555
C1A O6A 1_555 1_555
C2A O1A 1_555 1_555
C3A C1A 1_555 1_555
C4A C2A 1_555 1_555
C5A C3A 1_555 1_555
H1A C5A 1_555 1_555
C6A C4A 1_555 1_555
H2A C6A 1_555 1_555
C7A H3A 1_555 1_555
C8A C4A 1_555 1_555
H4A C8A 1_555 1_555
C9A C11A 1_555 1_555
C10A C7A 1_555 1_555
C11A H5A 1_555 1_555
C12A C6A 1_555 1_555
H6A C12A 1_555 1_555
C13A C5A 1_555 1_555
H7A C13A 1_555 1_555
O7A C25A 1_555 1_555
O8A C25A 1_555 1_555
C14A C3A 1_555 1_555
H8A C14A 1_555 1_555
O9A C15A 1_555 1_555
O10A C15A 1_555 1_555
O11A C9A 1_555 1_555
O12A C10A 1_555 1_555
C15A C18A 1_555 1_555
C16A H9A 1_555 1_555
C17A H10A 1_555 1_555
C18A C17A 1_555 1_555
C19A H11A 1_555 1_555
C20A H12A 1_555 1_555
C21A C18A 1_555 1_555
H13A C21A 1_555 1_555
C22A C19A 1_555 1_555
H14A C22A 1_555 1_555
C23A C16A 1_555 1_555
C24A C16A 1_555 1_555
H15A C24A 1_555 1_555
C25A C23A 1_555 1_555
C26A O11A 1_555 1_555
C27A O12A 1_555 1_555
C28A C17A 1_555 1_555
H16A C28A 1_555 1_555
O3A Mn2 1_555 1_555
Mn2_2 O2A 1_555 1_555
Mn2_3 O4A 1_555 1_555
Mn2_4 O4 1_555 1_555
O2A_2 Mn2 1_555 1_555
O4_2 Mn2 1_555 1_555
O4A_2 Mn2 1_555 1_555
C7 C8 1_555 1_555
C9 C13 1_555 1_555
C10 C12 1_555 1_555
C11 C14 1_555 1_555
C19 C23 1_555 1_555
C20 C21 1_555 1_555
C20 C27 1_555 1_555
C22 C26 1_555 1_555
C24 C26 1_555 1_555
C27 C28 1_555 1_555
C7A C8A 1_555 1_555
C9A C13A 1_555 1_555
C10A C12A 1_555 1_555
C11A C14A 1_555 1_555
C19A C23A 1_555 1_555
C20A C21A 1_555 1_555
C20A C27A 1_555 1_555
C22A C26A 1_555 1_555
C24A C26A 1_555 1_555
C27A C28A 1_555 1_555

#END
