
#######################################################################
#
#                 Cambridge Crystallographic Data Centre
#                                CCDC 
#
#######################################################################
#
# If this CIF has been generated from an entry in the Cambridge 
# Structural Database, then it will include bibliographic, chemical, 
# crystal, experimental, refinement or atomic coordinate data resulting 
# from the CCDC's data processing and validation procedures.
#
#######################################################################

data_ZIRWOO
_symmetry_cell_setting           monoclinic
_symmetry_space_group_name_H-M   'P 21/c'
_symmetry_Int_Tables_number      14
_space_group_name_Hall           '-P 2ybc'
loop_
_symmetry_equiv_pos_site_id
_symmetry_equiv_pos_as_xyz
1 x,y,z
2 -x,1/2+y,1/2-z
3 -x,-y,-z
4 x,1/2-y,1/2+z
_cell_length_a                   19.052(4)
_cell_length_b                   7.6554(18)
_cell_length_c                   19.105(4)
_cell_angle_alpha                90
_cell_angle_beta                 119.379(2)
_cell_angle_gamma                90
_cell_volume                     2428.12
loop_
_atom_site_label
_atom_site_type_symbol
_atom_site_fract_x
_atom_site_fract_y
_atom_site_fract_z
Ag1 Ag 0.00610(3) -0.11367(7) 0.24244(3)
Ag2 Ag 0.51737(3) 0.38371(7) 0.26682(3)
C1 C 0.8055(4) 0.7528(7) 0.4367(4)
C2 C 0.8395(4) 0.8516(7) 0.5072(4)
H1 H 0.8055 0.9054 0.5242
C3 C 0.9210(4) 0.8717(8) 0.5521(3)
H2 H 0.9431 0.9401 0.5997
C4 C 0.9724(4) 0.7922(8) 0.5285(4)
C5 C 0.9379(4) 0.6993(8) 0.4560(4)
H3 H 0.9718 0.6491 0.4379
C6 C 0.8556(4) 0.6795(8) 0.4107(4)
H4 H 0.8330 0.6158 0.3618
C7 C 0.6601(4) 0.8399(8) 0.3622(3)
H5 H 0.6671 0.9626 0.3698
C8 C 0.6845(4) 0.5634(7) 0.3681(4)
H6 H 0.7117 0.4543 0.3801
C9 C 1.1019(4) 0.8357(8) 0.6525(4)
H7 H 1.1585 0.8401 0.6731
C10 C 0.3120(4) 0.1843(7) 0.3695(4)
C11 C 0.3505(4) 0.2756(8) 0.4413(3)
H8 H 0.3197 0.3291 0.4623
C12 C 0.4332(4) 0.2890(8) 0.4823(4)
H9 H 0.4592 0.3526 0.5312
C13 C 0.4795(4) 0.2095(7) 0.4524(3)
C14 C 0.4398(4) 0.1137(8) 0.3810(3)
H10 H 0.4702 0.0556 0.3608
C15 C 0.3570(3) 0.1029(8) 0.3398(4)
H11 H 0.3306 0.0393 0.2909
C16 C 0.1718(4) 0.3067(8) 0.3072(3)
H12 H 0.1855 0.4268 0.3178
C17 C 0.1803(4) 0.0278(8) 0.2992(4)
H13 H 0.2008 -0.0870 0.3025
C18 C 0.6154(4) 0.2194(8) 0.4662(4)
H14 H 0.6708 0.2360 0.5038
N1 N 0.6064(3) 0.5831(6) 0.3256(3)
N2 N 0.5911(3) 0.7632(6) 0.3217(3)
N3 N 0.7211(3) 0.7217(6) 0.3925(3)
N4 N 1.0560(3) 0.8066(7) 0.5733(3)
H15 H 1.0820 0.7951 0.5462
N5 N 0.1040(3) 0.0665(6) 0.2674(3)
N6 N 0.0985(3) 0.2459(6) 0.2725(3)
N7 N 0.2264(3) 0.1730(6) 0.3265(3)
N8 N 0.5628(3) 0.2295(6) 0.4940(3)
H16 H 0.5840 0.2518 0.5456
O1 O 1.0782(3) 0.8570(6) 0.7005(3)
O2 O 0.5972(3) 0.1902(6) 0.3960(3)
Ag1A Ag -0.00610(3) 0.38633(7) 0.25756(3)
Ag1C Ag 1.00610(3) 0.61367(7) 0.74244(3)
Ag2A Ag 0.48263(3) 0.88371(7) 0.23318(3)
N2A N 0.4089(3) 0.2632(6) 0.1783(3)
N6A N -0.0985(3) -0.2541(6) 0.2275(3)
O1C O 0.0782(3) -0.3570(6) 0.2005(3)
Cl1 Cl 0.15740(10) 0.6546(2) 0.44523(9)
O3 O 0.1734(3) 0.7129(6) 0.5237(2)
O4 O 0.0779(3) 0.5827(8) 0.4029(3)
O5 O 0.2153(3) 0.5243(6) 0.4553(3)
O6 O 0.1651(4) 0.7989(6) 0.4023(3)
Cl2 Cl 0.33277(10) 0.6200(2) 0.28420(9)
O7 O 0.4170(3) 0.5818(8) 0.3278(3)
O8 O 0.3083(3) 0.6871(6) 0.3392(3)
O9 O 0.2875(3) 0.4660(6) 0.2461(3)
O10 O 0.3177(4) 0.7462(6) 0.2236(3)
loop_
_geom_bond_atom_site_label_1
_geom_bond_atom_site_label_2
_geom_bond_site_symmetry_1
_geom_bond_site_symmetry_2
Ag1 N5 1_555 1_555
Ag2 N1 1_555 1_555
C1 C2 1_555 1_555
C2 H1 1_555 1_555
C3 C2 1_555 1_555
H2 C3 1_555 1_555
C4 C3 1_555 1_555
C5 C4 1_555 1_555
H3 C5 1_555 1_555
C6 C1 1_555 1_555
H4 C6 1_555 1_555
C7 H5 1_555 1_555
C8 H6 1_555 1_555
C9 H7 1_555 1_555
C10 C11 1_555 1_555
C11 H8 1_555 1_555
C12 C11 1_555 1_555
H9 C12 1_555 1_555
C13 C12 1_555 1_555
C14 C13 1_555 1_555
H10 C14 1_555 1_555
C15 C10 1_555 1_555
H11 C15 1_555 1_555
C16 H12 1_555 1_555
C17 H13 1_555 1_555
C18 H14 1_555 1_555
N1 C8 1_555 1_555
N2 C7 1_555 1_555
N3 C1 1_555 1_555
N4 C4 1_555 1_555
H15 N4 1_555 1_555
N5 C17 1_555 1_555
N6 C16 1_555 1_555
N7 C10 1_555 1_555
N8 C13 1_555 1_555
H16 N8 1_555 1_555
O1 C9 1_555 1_555
O2 Ag2 1_555 1_555
Cl1 O3 1_555 1_555
O4 Cl1 1_555 1_555
O5 Cl1 1_555 1_555
O6 Cl1 1_555 1_555
Cl2 O7 1_555 1_555
O8 Cl2 1_555 1_555
O9 Cl2 1_555 1_555
O10 Cl2 1_555 1_555
Ag1A N6 1_555 1_555
Ag1C O1 1_555 1_555
Ag2A N2 1_555 1_555
N2A Ag2 1_555 1_555
N6A Ag1 1_555 1_555
O1C Ag1 1_555 1_555
C5 C6 1_555 1_555
C7 N3 1_555 1_555
C8 N3 1_555 1_555
C9 N4 1_555 1_555
C14 C15 1_555 1_555
C16 N7 1_555 1_555
C17 N7 1_555 1_555
C18 N8 1_555 1_555
C18 O2 1_555 1_555
N1 N2 1_555 1_555
N5 N6 1_555 1_555

#END
