
#######################################################################
#
#                 Cambridge Crystallographic Data Centre
#                                CCDC 
#
#######################################################################
#
# If this CIF has been generated from an entry in the Cambridge 
# Structural Database, then it will include bibliographic, chemical, 
# crystal, experimental, refinement or atomic coordinate data resulting 
# from the CCDC's data processing and validation procedures.
#
#######################################################################

data_ZISDAI
_symmetry_cell_setting           monoclinic
_symmetry_space_group_name_H-M   'P 21/c'
_symmetry_Int_Tables_number      14
_space_group_name_Hall           '-P 2ybc'
loop_
_symmetry_equiv_pos_site_id
_symmetry_equiv_pos_as_xyz
1 x,y,z
2 -x,1/2+y,1/2-z
3 -x,-y,-z
4 x,1/2-y,1/2+z
_cell_length_a                   8.9457(18)
_cell_length_b                   9.4833(19)
_cell_length_c                   11.691(2)
_cell_angle_alpha                90
_cell_angle_beta                 96.68(3)
_cell_angle_gamma                90
_cell_volume                     985.07
loop_
_atom_site_label
_atom_site_type_symbol
_atom_site_fract_x
_atom_site_fract_y
_atom_site_fract_z
Cu1 Cu 0.54241(3) 0.15996(3) 0.39903(2)
O1 O -0.24073(18) 0.14080(19) 0.39464(16)
O2 O -0.2057(2) 0.3738(2) 0.41373(18)
N1 N 0.6557(4) 0.1053(3) 0.1204(3)
N2 N 0.5607(2) 0.3340(2) 0.07316(16)
N3 N 0.4845(2) 0.4291(2) 0.13118(17)
N4 N 0.4624(2) 0.3790(2) 0.23056(17)
N5 N 0.5237(2) 0.2481(2) 0.24203(17)
N6 N 0.3143(2) 0.1864(2) 0.39809(17)
C1 C 0.2603(3) 0.2851(3) 0.4645(2)
C2 C 0.1081(3) 0.3102(3) 0.4658(3)
C3 C 0.0058(3) 0.2272(3) 0.3984(2)
C4 C 0.0606(3) 0.1247(3) 0.3301(3)
C5 C 0.2144(3) 0.1095(3) 0.3306(3)
C6 C -0.1610(3) 0.2514(3) 0.4025(2)
C7 C 0.5843(3) 0.2240(2) 0.1441(2)
H1 H -0.004(3) 0.065(3) 0.286(3)
H2 H 0.330(3) 0.338(3) 0.516(3)
H3 H 0.252(3) 0.044(3) 0.279(3)
H4 H 0.076(3) 0.381(3) 0.514(3)
H5 H 0.648(4) 0.043(4) 0.157(3)
H6 H 0.695(4) 0.099(4) 0.055(3)
Cu1_2 Cu -0.45759(3) 0.15996(3) 0.39903(2)
Cu1A Cu 0.45759(3) 0.65996(3) 0.10097(2)
Cu1C Cu 0.54241(3) 0.34004(3) -0.10097(2)
O1_2 O 0.75927(18) 0.14080(19) 0.39464(16)
N2C N 0.5607(2) 0.1660(2) 0.57316(16)
N3A N 0.5155(2) -0.0709(2) 0.36882(17)
loop_
_geom_bond_atom_site_label_1
_geom_bond_atom_site_label_2
_geom_bond_site_symmetry_1
_geom_bond_site_symmetry_2
Cu1 N5 1_555 1_555
O1 C6 1_555 1_555
O2 C6 1_555 1_555
N1 C7 1_555 1_555
N2 N3 1_555 1_555
N3 N4 1_555 1_555
N4 N5 1_555 1_555
N5 C7 1_555 1_555
N6 Cu1 1_555 1_555
C1 N6 1_555 1_555
C2 C1 1_555 1_555
C3 C2 1_555 1_555
C4 C3 1_555 1_555
C5 N6 1_555 1_555
C6 C3 1_555 1_555
C7 N2 1_555 1_555
H1 C4 1_555 1_555
H2 C1 1_555 1_555
H3 C5 1_555 1_555
H4 C2 1_555 1_555
H5 N1 1_555 1_555
H6 N1 1_555 1_555
Cu1_2 O1 1_555 1_555
Cu1A N3 1_555 1_555
Cu1C N2 1_555 1_555
O1_2 Cu1 1_555 1_555
N2C Cu1 1_555 1_555
N3A Cu1 1_555 1_555
C4 C5 1_555 1_555

#END
