
#######################################################################
#
#                 Cambridge Crystallographic Data Centre
#                                CCDC 
#
#######################################################################
#
# If this CIF has been generated from an entry in the Cambridge 
# Structural Database, then it will include bibliographic, chemical, 
# crystal, experimental, refinement or atomic coordinate data resulting 
# from the CCDC's data processing and validation procedures.
#
#######################################################################

data_ZISJOC
_symmetry_cell_setting           monoclinic
_symmetry_space_group_name_H-M   'P 21/n'
_symmetry_Int_Tables_number      14
_space_group_name_Hall           '-P 2yn'
loop_
_symmetry_equiv_pos_site_id
_symmetry_equiv_pos_as_xyz
1 x,y,z
2 1/2-x,1/2+y,1/2-z
3 -x,-y,-z
4 1/2+x,1/2-y,1/2+z
_cell_length_a                   15.535(4)
_cell_length_b                   12.555(3)
_cell_length_c                   15.636(4)
_cell_angle_alpha                90
_cell_angle_beta                 104.005(5)
_cell_angle_gamma                90
_cell_volume                     2959.02
loop_
_atom_site_label
_atom_site_type_symbol
_atom_site_fract_x
_atom_site_fract_y
_atom_site_fract_z
Eu1 Eu 0.532719(11) 0.588610(14) 0.364953(11)
N1 N 0.6777(2) 0.0060(3) 0.6156(2)
N2 N 0.5078(2) -0.1959(3) 0.9161(2)
O1 O 0.8034(3) 0.1949(3) 0.3152(3)
O2 O 0.8499(3) 0.0413(3) 0.3791(3)
O3 O 0.6216(2) -0.1068(3) 1.0085(2)
O4 O 0.4188(2) 0.4489(3) 0.3563(2)
O5 O 0.5762(3) -0.1017(3) 0.5267(2)
O6 O 0.5606(2) 0.4733(2) 0.2497(2)
O7 O 0.18738(18) -0.1209(2) 0.88042(18)
O8 O 0.54381(19) 0.7835(2) 0.37669(18)
O9 O 0.4159(2) -0.2681(2) 0.79328(19)
O10 O 0.5429(2) 0.3684(3) 0.5312(2)
O11 O 0.6050(2) 0.4269(2) 0.4286(2)
O12 O 0.7668(2) 0.0888(3) 0.7326(2)
O13 O 0.15671(18) -0.1417(3) 1.00975(19)
O14 O 0.40291(19) -0.3481(3) 1.24165(18)
O15 O 0.53740(17) -0.3201(2) 1.22633(17)
C1 C 0.8019(3) 0.1187(4) 0.3718(3)
C2 C 0.6353(3) -0.1476(3) 0.6803(3)
H1 H 0.656(3) -0.197(4) 0.675(3)
C3 C 0.7353(3) 0.0634(3) 0.4922(3)
H2 H 0.755(3) -0.006(4) 0.493(3)
C4 C 0.5692(3) -0.0004(3) 0.7856(3)
H3 H 0.551(4) 0.059(5) 0.796(4)
C5 C 0.5147(3) -0.0541(3) 0.7243(3)
H4 H 0.461(3) -0.031(3) 0.696(3)
C6 C 0.6344(3) -0.1624(4) 0.8636(3)
H5 H 0.678(3) -0.192(4) 0.881(3)
C7 C 0.6959(2) 0.2352(3) 0.4263(2)
H6 H 0.699(3) 0.285(3) 0.383(3)
C8 C 0.7210(3) 0.0139(4) 0.7026(3)
C9 C 0.3619(3) -0.1712(3) 0.9434(3)
H7 H 0.346(2) -0.140(3) 0.891(3)
C10 C 0.5471(3) -0.1619(3) 0.7065(3)
H8 H 0.513(3) -0.200(4) 0.668(3)
C11 C 0.5913(3) -0.1486(4) 0.9396(3)
C12 C 0.6449(2) 0.2555(3) 0.4864(2)
C13 C 0.6554(3) -0.0541(4) 0.8254(3)
H9 H 0.688(3) -0.014(3) 0.861(3)
C14 C 0.4778(3) -0.2486(3) 1.0548(3)
H10 H 0.534(3) -0.270(3) 1.070(3)
C15 C 0.7412(3) 0.1399(3) 0.4298(3)
C16 C 0.2100(3) -0.1456(3) 0.9618(3)
C17 C 0.3321(3) -0.2298(3) 1.0795(2)
H11 H 0.290(2) -0.237(3) 1.109(2)
C18 C 0.4486(2) -0.2047(3) 0.9729(2)
C19 C 0.4875(3) -0.2341(3) 0.8301(2)
C20 C 0.5679(3) -0.2235(3) 0.7941(3)
H12 H 0.589(3) -0.286(3) 0.787(3)
C21 C 0.6396(3) 0.1793(3) 0.5489(2)
H13 H 0.612(3) 0.190(3) 0.587(3)
C22 C 0.6997(3) -0.0836(4) 0.7504(3)
H14 H 0.746(4) -0.112(4) 0.772(3)
C23 C 0.5948(2) 0.3585(3) 0.4819(2)
C24 C 0.3034(2) -0.1835(3) 0.9970(3)
C25 C 0.6239(3) -0.0841(3) 0.5970(3)
C26 C 0.6843(3) 0.0849(3) 0.5508(3)
C27 C 0.4541(3) -0.3136(3) 1.1973(2)
C28 C 0.4192(2) -0.2627(3) 1.1089(2)
Eu1_2 Eu 0.532719(11) -0.411390(14) 1.364953(11)
Eu1B Eu 0.467281(11) 0.411390(14) 0.635047(11)
Eu1C Eu 0.032719(11) -0.088610(14) 0.864953(11)
O7C O 0.68738(18) 0.6209(2) 0.38042(18)
O10B O 0.4571(2) 0.6316(3) 0.4688(2)
O13C O 0.65671(18) 0.6417(3) 0.50975(19)
O14_2 O 0.40291(19) 0.6519(3) 0.24165(18)
O15_2 O 0.53740(17) 0.6799(2) 0.22633(17)
O16 O 0.8122(3) 0.3668(4) 0.1703(3)
O17 O 0.7876(3) 0.4576(4) 0.3173(3)
loop_
_geom_bond_atom_site_label_1
_geom_bond_atom_site_label_2
_geom_bond_site_symmetry_1
_geom_bond_site_symmetry_2
Eu1 O4 1_555 1_555
N1 C8 1_555 1_555
N2 C11 1_555 1_555
O1 C1 1_555 1_555
O2 C1 1_555 1_555
O3 C11 1_555 1_555
O5 C25 1_555 1_555
O6 Eu1 1_555 1_555
O7 C16 1_555 1_555
O8 Eu1 1_555 1_555
O9 C19 1_555 1_555
O10 C23 1_555 1_555
O11 Eu1 1_555 1_555
O12 C8 1_555 1_555
O13 C16 1_555 1_555
O14 C27 1_555 1_555
O15 C27 1_555 1_555
C1 C15 1_555 1_555
C2 H1 1_555 1_555
C3 H2 1_555 1_555
C4 H3 1_555 1_555
C5 C4 1_555 1_555
H4 C5 1_555 1_555
C6 H5 1_555 1_555
C7 H6 1_555 1_555
C8 C22 1_555 1_555
C9 H7 1_555 1_555
C10 C2 1_555 1_555
H8 C10 1_555 1_555
C11 C6 1_555 1_555
C12 C7 1_555 1_555
C13 C4 1_555 1_555
H9 C13 1_555 1_555
C14 H10 1_555 1_555
C15 C3 1_555 1_555
C16 C24 1_555 1_555
C17 H11 1_555 1_555
C18 N2 1_555 1_555
C19 N2 1_555 1_555
C20 C6 1_555 1_555
H12 C20 1_555 1_555
C21 C12 1_555 1_555
H13 C21 1_555 1_555
C22 C2 1_555 1_555
H14 C22 1_555 1_555
C23 O11 1_555 1_555
C24 C9 1_555 1_555
C25 N1 1_555 1_555
C26 N1 1_555 1_555
C27 C28 1_555 1_555
C28 C14 1_555 1_555
Eu1_2 O14 1_555 1_555
Eu1B O10 1_555 1_555
Eu1C O7 1_555 1_555
O7C Eu1 1_555 1_555
O10B Eu1 1_555 1_555
O13C Eu1 1_555 1_555
O14_2 Eu1 1_555 1_555
O15_2 Eu1 1_555 1_555
O13 Eu1C 1_555 1_555
O15 Eu1_2 1_555 1_555
C2 C25 1_555 1_555
C3 C26 1_555 1_555
C5 C10 1_555 1_555
C6 C13 1_555 1_555
C7 C15 1_555 1_555
C9 C18 1_555 1_555
C10 C20 1_555 1_555
C12 C23 1_555 1_555
C13 C22 1_555 1_555
C14 C18 1_555 1_555
C17 C24 1_555 1_555
C17 C28 1_555 1_555
C19 C20 1_555 1_555
C21 C26 1_555 1_555

#END
