
#######################################################################
#
#                 Cambridge Crystallographic Data Centre
#                                CCDC 
#
#######################################################################
#
# If this CIF has been generated from an entry in the Cambridge 
# Structural Database, then it will include bibliographic, chemical, 
# crystal, experimental, refinement or atomic coordinate data resulting 
# from the CCDC's data processing and validation procedures.
#
#######################################################################

data_ZISWEF
_symmetry_cell_setting           triclinic
_symmetry_space_group_name_H-M   'P -1'
_symmetry_Int_Tables_number      2
_space_group_name_Hall           '-P 1'
loop_
_symmetry_equiv_pos_site_id
_symmetry_equiv_pos_as_xyz
1 x,y,z
2 -x,-y,-z
_cell_length_a                   7.2436(14)
_cell_length_b                   15.840(3)
_cell_length_c                   19.068(3)
_cell_angle_alpha                90.405(3)
_cell_angle_beta                 92.964(3)
_cell_angle_gamma                92.099(4)
_cell_volume                     2183.36
loop_
_atom_site_label
_atom_site_type_symbol
_atom_site_fract_x
_atom_site_fract_y
_atom_site_fract_z
Cu2 Cu 0.30584(12) 0.58363(4) 0.07613(4)
S2 S 0.1631(2) 1.36646(10) -0.12754(9)
O5 O 0.3129(8) 0.6157(3) -0.0212(2)
O6 O 0.0508(6) 1.4007(3) -0.0733(2)
O7 O 0.3451(6) 1.4001(3) -0.1229(3)
O8 O 0.0720(7) 1.3735(3) -0.1972(2)
C18 C 0.2301(14) 0.4132(4) 0.1078(4)
H18 H 0.0960 0.4094 0.1036
H19 H 0.2752 0.3564 0.1059
C19 C 0.2893(14) 0.4521(4) 0.1737(4)
H20 H 0.4158 0.4374 0.1857
H21 H 0.2125 0.4300 0.2100
C20 C 0.2933(11) 0.6967(4) -0.0289(4)
C21 C 0.2713(15) 0.7349(5) -0.0953(4)
H22 H 0.2614 0.7028 -0.1364
C22 C 0.2651(14) 0.8240(5) -0.0968(4)
H23 H 0.2602 0.8496 -0.1406
C23 C 0.2656(11) 0.8742(4) -0.0398(4)
C24 C 0.2873(8) 0.8382(4) 0.0279(4)
C25 C 0.2982(8) 0.7496(3) 0.0314(3)
C26 C 0.3294(9) 0.7518(4) 0.1520(3)
H24 H 0.3425 0.7233 0.1943
C27 C 0.3250(9) 0.8393(4) 0.1532(3)
H25 H 0.3368 0.8684 0.1958
C28 C 0.3035(9) 0.8821(4) 0.0924(4)
H26 H 0.2995 0.9407 0.0932
C29 C 0.2031(10) 1.0847(4) -0.0961(5)
C30 C 0.2218(11) 1.1380(5) -0.0381(4)
H27 H 0.2431 1.1157 0.0064
C31 C 0.2086(10) 1.2264(4) -0.0463(3)
H28 H 0.2222 1.2630 -0.0079
C32 C 0.1751(8) 1.2555(4) -0.1125(3)
C33 C 0.1536(10) 1.2012(4) -0.1692(4)
H29 H 0.1302 1.2228 -0.2139
C34 C 0.1661(11) 1.1159(4) -0.1607(5)
H30 H 0.1492 1.0797 -0.1993
N6 N 0.2791(7) 0.5430(3) 0.1723(2)
H31 H 0.3695 0.5666 0.2010
H32 H 0.1697 0.5583 0.1877
N7 N 0.2989(9) 0.4616(3) 0.0503(3)
H33 H 0.2247 0.4523 0.0115
H34 H 0.4132 0.4456 0.0412
N8 N 0.2473(8) 0.9671(4) -0.0376(4)
N9 N 0.2153(9) 0.9907(4) -0.0964(4)
N10 N 0.3157(6) 0.7082(3) 0.0936(2)
Cu2A Cu -0.30584(12) 1.41637(4) -0.07613(4)
Cu2A_2 Cu 0.69416(12) 1.41637(4) -0.07613(4)
O6A O -0.0508(6) 0.5993(3) 0.0733(2)
O7A O 0.6549(6) 0.5999(3) 0.1229(3)
Cu1 Cu 0.20153(9) 0.40754(4) 0.58170(3)
S1 S 0.29629(19) -0.38025(8) 0.38080(7)
O1 O 0.1270(5) 0.3690(2) 0.48658(18)
O2 O 0.4324(5) -0.4049(2) 0.43505(18)
O3 O 0.3642(5) -0.3875(2) 0.31083(18)
O4 O 0.1183(5) -0.4230(2) 0.3864(2)
C1 C 0.3024(10) 0.5781(4) 0.6117(3)
H1 H 0.2709 0.6369 0.6077
H2 H 0.4356 0.5748 0.6103
C2 C 0.2388(10) 0.5429(4) 0.6795(3)
H3 H 0.3118 0.5685 0.7188
H4 H 0.1101 0.5553 0.6848
C3 C 0.2975(8) 0.2439(3) 0.6547(3)
H5 H 0.3222 0.2747 0.6960
C4 C 0.3278(8) 0.1579(3) 0.6553(3)
H6 H 0.3740 0.1325 0.6960
C5 C 0.2892(8) 0.1113(4) 0.5960(3)
H7 H 0.3054 0.0533 0.5962
C6 C 0.2239(7) 0.1516(3) 0.5338(3)
C7 C 0.1817(8) 0.1095(3) 0.4688(3)
C8 C 0.1174(10) 0.1573(4) 0.4119(3)
H8 H 0.0867 0.1298 0.3694
C9 C 0.0974(10) 0.2432(4) 0.4160(3)
H9 H 0.0566 0.2724 0.3763
C10 C 0.1379(8) 0.2871(3) 0.4791(3)
C11 C 0.1986(7) 0.2385(3) 0.5385(3)
C12 C 0.2044(8) -0.1012(3) 0.4083(3)
C13 C 0.2791(8) -0.1460(4) 0.4647(3)
H10 H 0.3102 -0.1188 0.5073
C14 C 0.3067(8) -0.2311(3) 0.4571(3)
H11 H 0.3569 -0.2613 0.4947
C15 C 0.2600(7) -0.2717(3) 0.3939(3)
C16 C 0.1833(8) -0.2267(3) 0.3386(3)
H12 H 0.1496 -0.2542 0.2964
C17 C 0.1569(8) -0.1429(4) 0.3455(3)
H13 H 0.1065 -0.1131 0.3077
N1 N 0.2606(6) 0.4524(3) 0.6787(2)
H14 H 0.1842 0.4276 0.7088
H15 H 0.3776 0.4407 0.6924
N2 N 0.2118(6) 0.5291(3) 0.5541(2)
H16 H 0.2754 0.5355 0.5151
H17 H 0.0966 0.5470 0.5451
N3 N 0.2127(7) 0.0222(3) 0.4675(3)
N4 N 0.1709(7) -0.0127(3) 0.4089(3)
N5 N 0.2354(6) 0.2843(2) 0.5982(2)
Cu1A Cu -0.20153(9) -0.40754(4) 0.41830(3)
Cu1A_2 Cu 0.79847(9) -0.40754(4) 0.41830(3)
O2A O 0.5676(5) 0.4049(2) 0.56495(18)
O4A O -0.1183(5) 0.4230(2) 0.6136(2)
loop_
_geom_bond_atom_site_label_1
_geom_bond_atom_site_label_2
_geom_bond_site_symmetry_1
_geom_bond_site_symmetry_2
Cu1 O1 1_555 1_555
S1 O2 1_555 1_555
O1 C10 1_555 1_555
O2 Cu1A_2 1_555 1_555
O3 S1 1_555 1_555
O4 S1 1_555 1_555
C1 H1 1_555 1_555
H2 C1 1_555 1_555
C2 C1 1_555 1_555
H3 C2 1_555 1_555
H4 C2 1_555 1_555
C3 H5 1_555 1_555
C4 C3 1_555 1_555
H6 C4 1_555 1_555
C5 C4 1_555 1_555
H7 C5 1_555 1_555
C6 C5 1_555 1_555
C7 C6 1_555 1_555
C8 C7 1_555 1_555
H8 C8 1_555 1_555
C9 C8 1_555 1_555
H9 C9 1_555 1_555
C10 C9 1_555 1_555
C11 C6 1_555 1_555
C12 C13 1_555 1_555
C13 H10 1_555 1_555
C14 C13 1_555 1_555
H11 C14 1_555 1_555
C15 S1 1_555 1_555
C16 C15 1_555 1_555
H12 C16 1_555 1_555
C17 C12 1_555 1_555
H13 C17 1_555 1_555
N1 Cu1 1_555 1_555
H14 N1 1_555 1_555
H15 N1 1_555 1_555
N2 Cu1 1_555 1_555
H16 N2 1_555 1_555
H17 N2 1_555 1_555
N3 C7 1_555 1_555
N4 C12 1_555 1_555
N5 Cu1 1_555 1_555
Cu2 O5 1_555 1_555
S2 O6 1_555 1_555
O5 C20 1_555 1_555
O6 Cu2A 1_555 1_555
O7 S2 1_555 1_555
O8 S2 1_555 1_555
C18 H18 1_555 1_555
H19 C18 1_555 1_555
C19 C18 1_555 1_555
H20 C19 1_555 1_555
H21 C19 1_555 1_555
C20 C21 1_555 1_555
C21 H22 1_555 1_555
C22 C21 1_555 1_555
H23 C22 1_555 1_555
C23 C22 1_555 1_555
C24 C23 1_555 1_555
C25 C20 1_555 1_555
C26 H24 1_555 1_555
C27 C26 1_555 1_555
H25 C27 1_555 1_555
C28 C24 1_555 1_555
H26 C28 1_555 1_555
C29 C30 1_555 1_555
C30 H27 1_555 1_555
C31 C30 1_555 1_555
H28 C31 1_555 1_555
C32 S2 1_555 1_555
C33 C32 1_555 1_555
H29 C33 1_555 1_555
C34 C29 1_555 1_555
H30 C34 1_555 1_555
N6 Cu2 1_555 1_555
H31 N6 1_555 1_555
H32 N6 1_555 1_555
N7 Cu2 1_555 1_555
H33 N7 1_555 1_555
H34 N7 1_555 1_555
N8 C23 1_555 1_555
N9 C29 1_555 1_555
N10 Cu2 1_555 1_555
Cu1A O4 1_555 1_555
O2A Cu1 1_555 1_555
O4A Cu1 1_555 1_555
Cu2A_2 O7 1_555 1_555
O6A Cu2 1_555 1_555
O7A Cu2 1_555 1_555
C1 N2 1_555 1_555
C2 N1 1_555 1_555
C3 N5 1_555 1_555
C10 C11 1_555 1_555
C11 N5 1_555 1_555
C14 C15 1_555 1_555
C16 C17 1_555 1_555
N3 N4 1_555 1_555
C18 N7 1_555 1_555
C19 N6 1_555 1_555
C24 C25 1_555 1_555
C25 N10 1_555 1_555
C26 N10 1_555 1_555
C27 C28 1_555 1_555
C31 C32 1_555 1_555
C33 C34 1_555 1_555
N8 N9 1_555 1_555

#END
