
#######################################################################
#
#                 Cambridge Crystallographic Data Centre
#                                CCDC 
#
#######################################################################
#
# If this CIF has been generated from an entry in the Cambridge 
# Structural Database, then it will include bibliographic, chemical, 
# crystal, experimental, refinement or atomic coordinate data resulting 
# from the CCDC's data processing and validation procedures.
#
#######################################################################

data_ZITKES
_symmetry_cell_setting           monoclinic
_symmetry_space_group_name_H-M   'P 21/c'
_symmetry_Int_Tables_number      14
_space_group_name_Hall           '-P 2ybc'
loop_
_symmetry_equiv_pos_site_id
_symmetry_equiv_pos_as_xyz
1 x,y,z
2 -x,1/2+y,1/2-z
3 -x,-y,-z
4 x,1/2-y,1/2+z
_cell_length_a                   7.8635(9)
_cell_length_b                   13.353(7)
_cell_length_c                   8.0733(7)
_cell_angle_alpha                90
_cell_angle_beta                 105.69(1)
_cell_angle_gamma                90
_cell_volume                     816.121
loop_
_atom_site_label
_atom_site_type_symbol
_atom_site_fract_x
_atom_site_fract_y
_atom_site_fract_z
Ni1 Ni 0.5000 0.5000 0.5000
N1 N 0.9597(4) 0.3837(2) 0.8559(4)
N2 N 1.0222(4) 0.4361(3) 0.7422(5)
N3 N 0.8871(4) 0.4674(3) 0.6216(4)
N4 N 0.7365(4) 0.4375(2) 0.6528(4)
C1 C 0.7859(5) 0.3860(3) 0.7986(5)
N5 N 0.7711(4) 0.7751(2) 0.5114(4)
N6 N 0.6231(5) 0.8068(2) 0.5490(5)
N7 N 0.5278(4) 0.7290(2) 0.5591(5)
N8 N 0.6107(4) 0.6456(2) 0.5272(4)
C2 C 0.7583(5) 0.6766(3) 0.5003(5)
B1 B 1.0865(7) 0.3463(4) 1.0284(6)
N9 N 0.4113(5) 0.5264(3) 0.7186(5)
H1 H 0.7078(54) 0.3538(32) 0.8533(53)
H2 H 0.8356(54) 0.6418(31) 0.4792(51)
H3 H 1.0002(59) 0.3065(32) 1.0956(59)
H4 H 1.1659(60) 0.4156(33) 1.1035(61)
H5 H 0.4185(77) 0.4763(31) 0.7889(60)
H6 H 0.4652(67) 0.5741(31) 0.7799(61)
H7 H 0.3052(42) 0.5288(43) 0.7184(73)
N4B N 0.2635(4) 0.5625(2) 0.3472(4)
N8B N 0.3893(4) 0.3544(2) 0.4728(4)
N9B N 0.5887(5) 0.4736(3) 0.2814(5)
B1A B 0.9135(7) 0.8463(4) 0.4716(6)
N5A N 1.2289(4) 0.2751(2) 0.9886(4)
H5B H 0.5815(77) 0.5237(31) 0.2111(60)
H6B H 0.5348(67) 0.4259(31) 0.2201(61)
H7B H 0.6948(42) 0.4712(43) 0.2816(73)
N1A N 1.0403(4) 0.8837(2) 0.6441(4)
H3A H 0.9998(59) 0.8065(32) 0.4044(59)
H4A H 0.8341(60) 0.9156(33) 0.3965(61)
N6A N 1.3769(5) 0.3068(2) 0.9510(5)
C2A C 1.2417(5) 0.1766(3) 0.9997(5)
N2A N 0.9778(4) 0.9361(3) 0.7578(5)
C1A C 1.2141(5) 0.8860(3) 0.7014(5)
N7A N 1.4722(4) 0.2290(2) 0.9409(5)
N8A N 1.3893(4) 0.1456(2) 0.9728(4)
H2A H 1.1644(54) 0.1418(31) 1.0208(51)
N3A N 1.1129(4) 0.9674(3) 0.8784(4)
N4A N 1.2635(4) 0.9375(2) 0.8472(4)
H1A H 1.2922(54) 0.8538(32) 0.6467(53)
Ni1A Ni 1.5000 0.0000 1.0000
Ni1A_2 Ni 1.5000 1.0000 1.0000
loop_
_geom_bond_atom_site_label_1
_geom_bond_atom_site_label_2
_geom_bond_site_symmetry_1
_geom_bond_site_symmetry_2
Ni1 N4 1_555 1_555
N1 N2 1_555 1_555
N2 N3 1_555 1_555
N3 N4 1_555 1_555
N4 C1 1_555 1_555
C1 N1 1_555 1_555
N5 N6 1_555 1_555
N6 N7 1_555 1_555
N7 N8 1_555 1_555
N8 Ni1 1_555 1_555
C2 N5 1_555 1_555
B1 N1 1_555 1_555
N9 Ni1 1_555 1_555
H1 C1 1_555 1_555
H2 C2 1_555 1_555
H3 B1 1_555 1_555
H4 B1 1_555 1_555
H5 N9 1_555 1_555
H6 N9 1_555 1_555
H7 N9 1_555 1_555
N4B Ni1 1_555 1_555
N8B Ni1 1_555 1_555
N9B Ni1 1_555 1_555
B1A N5 1_555 1_555
N5A B1 1_555 1_555
H5B N9B 1_555 1_555
H6B N9B 1_555 1_555
H7B N9B 1_555 1_555
N1A B1A 1_555 1_555
H3A B1A 1_555 1_555
H4A B1A 1_555 1_555
N6A N5A 1_555 1_555
C2A N5A 1_555 1_555
N2A N1A 1_555 1_555
C1A N1A 1_555 1_555
N7A N6A 1_555 1_555
N8A C2A 1_555 1_555
H2A C2A 1_555 1_555
N3A N2A 1_555 1_555
N4A C1A 1_555 1_555
H1A C1A 1_555 1_555
Ni1A N8A 1_555 1_555
Ni1A_2 N4A 1_555 1_555
N8 C2 1_555 1_555
N7A N8A 1_555 1_555
N3A N4A 1_555 1_555

#END
