
#######################################################################
#
#                 Cambridge Crystallographic Data Centre
#                                CCDC 
#
#######################################################################
#
# If this CIF has been generated from an entry in the Cambridge 
# Structural Database, then it will include bibliographic, chemical, 
# crystal, experimental, refinement or atomic coordinate data resulting 
# from the CCDC's data processing and validation procedures.
#
#######################################################################

data_ZITWII
_symmetry_cell_setting           triclinic
_symmetry_space_group_name_H-M   'P -1'
_symmetry_Int_Tables_number      2
_space_group_name_Hall           '-P 1'
loop_
_symmetry_equiv_pos_site_id
_symmetry_equiv_pos_as_xyz
1 x,y,z
2 -x,-y,-z
_cell_length_a                   6.426(3)
_cell_length_b                   11.027(6)
_cell_length_c                   13.68(1)
_cell_angle_alpha                93.11(6)
_cell_angle_beta                 90.64(6)
_cell_angle_gamma                95.06(4)
_cell_volume                     964.034
loop_
_atom_site_label
_atom_site_type_symbol
_atom_site_fract_x
_atom_site_fract_y
_atom_site_fract_z
Ni1 Ni 0.1578(3) 0.3318(2) 0.1543(1)
S1 S -0.3313(5) 0.3885(3) 0.1123(3)
O1 O -0.166(1) 0.3389(7) 0.1715(6)
O2 O -0.527(1) 0.3176(7) 0.1347(7)
O3 O -0.287(2) 0.363(1) 0.0065(8)
O4 O -0.341(2) 0.5157(9) 0.134(1)
O5 O 0.194(1) 0.5221(6) 0.1634(6)
O6 O 0.120(1) 0.3382(7) 0.0056(6)
N1 N 0.116(2) 0.1379(9) 0.1405(9)
C1 C -0.015(2) 0.059(1) 0.186(1)
N2 N -0.014(2) -0.0623(9) 0.1808(8)
C2 C 0.120(2) -0.111(1) 0.119(1)
C3 C 0.250(2) -0.040(1) 0.062(1)
C4 C 0.239(2) 0.083(1) 0.072(1)
N3 N -0.145(2) 0.1083(9) 0.2530(9)
N4 N 0.223(1) 0.3276(9) 0.3072(8)
C5 C 0.134(2) 0.393(1) 0.382(1)
N5 N 0.211(2) 0.408(1) 0.4721(9)
C6 C 0.380(2) 0.353(1) 0.495(1)
C7 C 0.471(2) 0.280(1) 0.423(1)
C8 C 0.384(2) 0.269(1) 0.330(1)
N6 N -0.041(2) 0.446(1) 0.3589(9)
H1 H 0.13130 -0.20070 0.11920
H2 H 0.33970 -0.07940 0.00930
H3 H 0.32080 0.13670 0.02700
H4 H -0.14820 0.19800 0.25630
H5 H -0.24320 0.05030 0.28690
H6 H 0.44340 0.36740 0.56580
H7 H 0.60170 0.23740 0.44150
H8 H 0.44780 0.21470 0.27950
H9 H -0.10100 0.43560 0.29200
H10 H -0.10820 0.49400 0.41440
H11 H 0.16210 0.52310 0.08810
H12 H 0.21190 0.61270 0.16730
H13 H 0.09510 0.34140 -0.06680
H14 H 0.14490 0.43090 0.01250
O2_2 O 0.473(1) 0.3176(7) 0.1347(7)
Ni1_2 Ni -0.8422(3) 0.3318(2) 0.1543(1)
N7 N 0.495(2) 0.913(1) 0.336(1)
C9 C 0.475(3) 0.797(1) 0.295(1)
N8 N 0.304(2) 0.716(1) 0.308(1)
C10 C 0.161(3) 0.753(1) 0.363(1)
C11 C 0.167(3) 0.867(1) 0.408(1)
C12 C 0.343(3) 0.942(1) 0.389(1)
N9 N 0.634(2) 0.759(1) 0.243(1)
H15 H 0.03520 0.69450 0.37470
H16 H 0.05310 0.89260 0.45350
H17 H 0.34570 1.02750 0.42130
H18 H 0.76330 0.81650 0.23380
H19 H 0.62420 0.67320 0.21450
loop_
_geom_bond_atom_site_label_1
_geom_bond_atom_site_label_2
_geom_bond_site_symmetry_1
_geom_bond_site_symmetry_2
Ni1 O1 1_555 1_555
S1 O1 1_555 1_555
O2 S1 1_555 1_555
O3 S1 1_555 1_555
O4 S1 1_555 1_555
O5 Ni1 1_555 1_555
O6 Ni1 1_555 1_555
N1 Ni1 1_555 1_555
C1 N1 1_555 1_555
N2 C1 1_555 1_555
C2 N2 1_555 1_555
C3 C2 1_555 1_555
C4 N1 1_555 1_555
N3 C1 1_555 1_555
N4 Ni1 1_555 1_555
C5 N4 1_555 1_555
N5 C5 1_555 1_555
C6 N5 1_555 1_555
C7 C6 1_555 1_555
C8 N4 1_555 1_555
N6 C5 1_555 1_555
N7 C9 1_555 1_555
C9 N8 1_555 1_555
N8 C10 1_555 1_555
C10 C11 1_555 1_555
C11 C12 1_555 1_555
C12 N7 1_555 1_555
N9 C9 1_555 1_555
H1 C2 1_555 1_555
H2 C3 1_555 1_555
H3 C4 1_555 1_555
H4 N3 1_555 1_555
H5 N3 1_555 1_555
H6 C6 1_555 1_555
H7 C7 1_555 1_555
H8 C8 1_555 1_555
H9 N6 1_555 1_555
H10 N6 1_555 1_555
H11 O5 1_555 1_555
H12 O5 1_555 1_555
H13 O6 1_555 1_555
H14 O6 1_555 1_555
H15 C10 1_555 1_555
H16 C11 1_555 1_555
H17 C12 1_555 1_555
H18 N9 1_555 1_555
H19 N9 1_555 1_555
O2_2 Ni1 1_555 1_555
Ni1_2 O2 1_555 1_555
C3 C4 1_555 1_555
C7 C8 1_555 1_555

#END
