
#######################################################################
#
#                 Cambridge Crystallographic Data Centre
#                                CCDC 
#
#######################################################################
#
# If this CIF has been generated from an entry in the Cambridge 
# Structural Database, then it will include bibliographic, chemical, 
# crystal, experimental, refinement or atomic coordinate data resulting 
# from the CCDC's data processing and validation procedures.
#
#######################################################################

data_ZITXAB
_symmetry_cell_setting           monoclinic
_symmetry_space_group_name_H-M   'P 21/n'
_symmetry_Int_Tables_number      14
_space_group_name_Hall           '-P 2yn'
loop_
_symmetry_equiv_pos_site_id
_symmetry_equiv_pos_as_xyz
1 x,y,z
2 1/2-x,1/2+y,1/2-z
3 -x,-y,-z
4 1/2+x,1/2-y,1/2+z
_cell_length_a                   10.224(1)
_cell_length_b                   14.700(2)
_cell_length_c                   13.069(3)
_cell_angle_alpha                90
_cell_angle_beta                 103.63(2)
_cell_angle_gamma                90
_cell_volume                     1908.86
loop_
_atom_site_label
_atom_site_type_symbol
_atom_site_fract_x
_atom_site_fract_y
_atom_site_fract_z
Cu1 Cu 0.10232(10) -0.44801(6) 0.24099(7)
Cu2 Cu 0.28858(10) -0.32678(6) 0.29875(8)
I1 I 0.26271(5) -0.43605(4) 0.12420(4)
I2 I 0.15593(6) -0.39042(4) 0.43588(4)
N1 N 0.4657(6) -0.0994(4) 0.2542(4)
N2 N 0.1922(7) -0.2103(4) 0.2388(5)
N3 N 0.2366(7) -0.1501(4) 0.1763(5)
N4 N 0.4902(6) -0.3072(4) 0.3423(4)
N5 N 0.5576(7) -0.2281(4) 0.3708(4)
N6 N 0.5975(6) 0.0603(4) 0.3230(4)
C1 C 0.0616(9) -0.1919(6) 0.2245(7)
C2 C 0.0226(9) -0.1239(6) 0.1505(7)
C3 C 0.1374(10) -0.0976(6) 0.1234(6)
C4 C 0.3754(9) -0.1517(5) 0.1688(6)
C5 C 0.5854(10) -0.3687(5) 0.3516(6)
C6 C 0.7129(8) -0.3305(6) 0.3832(6)
C7 C 0.6911(8) -0.2412(5) 0.3950(5)
C8 C 0.4843(7) -0.1406(5) 0.3581(5)
C9 C 0.5947(8) -0.0780(5) 0.2265(5)
C10 C 0.6719(8) -0.0065(5) 0.2987(5)
C11 C 0.8099(9) -0.0082(6) 0.3347(6)
C12 C 0.8745(9) 0.0621(8) 0.3978(8)
C13 C 0.7977(11) 0.1300(7) 0.4253(7)
C14 C 0.6599(9) 0.1277(5) 0.3856(6)
H1 H 0.000 -0.224 0.262
H2 H -0.068 -0.099 0.122
H3 H 0.146 -0.048 0.074
H4 H 0.407 -0.215 0.171
H5 H 0.384 -0.128 0.101
H6 H 0.568 -0.435 0.339
H7 H 0.802 -0.363 0.395
H8 H 0.761 -0.194 0.417
H9 H 0.530 -0.097 0.411
H10 H 0.396 -0.150 0.373
H11 H 0.649 -0.133 0.229
H12 H 0.578 -0.057 0.154
H13 H 0.863 -0.060 0.318
H14 H 0.974 0.063 0.423
H15 H 0.841 0.180 0.471
H16 H 0.607 0.178 0.405
N1A N 0.0343(6) -0.5994(4) 0.2458(4)
Cu1A Cu 0.39768(10) 0.05199(6) 0.25901(7)
N6A N -0.0975(6) -0.4397(4) 0.1770(4)
loop_
_geom_bond_atom_site_label_1
_geom_bond_atom_site_label_2
_geom_bond_site_symmetry_1
_geom_bond_site_symmetry_2
Cu1 Cu2 1_555 1_555
Cu2 I1 1_555 1_555
I1 Cu1 1_555 1_555
I2 Cu1 1_555 1_555
N1 C4 1_555 1_555
N2 Cu2 1_555 1_555
N3 N2 1_555 1_555
N4 Cu2 1_555 1_555
N5 N4 1_555 1_555
N6 C10 1_555 1_555
C1 N2 1_555 1_555
C2 C1 1_555 1_555
C3 N3 1_555 1_555
C4 N3 1_555 1_555
C5 N4 1_555 1_555
C6 C5 1_555 1_555
C7 N5 1_555 1_555
C8 N1 1_555 1_555
C9 N1 1_555 1_555
C10 C9 1_555 1_555
C11 C10 1_555 1_555
C12 C11 1_555 1_555
C13 C12 1_555 1_555
C14 N6 1_555 1_555
H1 C1 1_555 1_555
H2 C2 1_555 1_555
H3 C3 1_555 1_555
H4 C4 1_555 1_555
H5 C4 1_555 1_555
H6 C5 1_555 1_555
H7 C6 1_555 1_555
H8 C7 1_555 1_555
H9 C8 1_555 1_555
H10 C8 1_555 1_555
H11 C9 1_555 1_555
H12 C9 1_555 1_555
H13 C11 1_555 1_555
H14 C12 1_555 1_555
H15 C13 1_555 1_555
H16 C14 1_555 1_555
N1A Cu1 1_555 1_555
Cu1A N1 1_555 1_555
N6A Cu1 1_555 1_555
Cu2 I2 1_555 1_555
N5 C8 1_555 1_555
N6 Cu1A 1_555 1_555
C2 C3 1_555 1_555
C6 C7 1_555 1_555
C13 C14 1_555 1_555

#END
