
#######################################################################
#
#                 Cambridge Crystallographic Data Centre
#                                CCDC 
#
#######################################################################
#
# If this CIF has been generated from an entry in the Cambridge 
# Structural Database, then it will include bibliographic, chemical, 
# crystal, experimental, refinement or atomic coordinate data resulting 
# from the CCDC's data processing and validation procedures.
#
#######################################################################

data_ZIVBIR
_symmetry_cell_setting           monoclinic
_symmetry_space_group_name_H-M   'P 21/c'
_symmetry_Int_Tables_number      14
_space_group_name_Hall           '-P 2ybc'
loop_
_symmetry_equiv_pos_site_id
_symmetry_equiv_pos_as_xyz
1 x,y,z
2 -x,1/2+y,1/2-z
3 -x,-y,-z
4 x,1/2-y,1/2+z
_cell_length_a                   7.1998(6)
_cell_length_b                   17.7305(13)
_cell_length_c                   6.7135(6)
_cell_angle_alpha                90
_cell_angle_beta                 115.668(9)
_cell_angle_gamma                90
_cell_volume                     772.448
loop_
_atom_site_label
_atom_site_type_symbol
_atom_site_fract_x
_atom_site_fract_y
_atom_site_fract_z
Cu1 Cu 0.14544(6) 0.26912(2) 0.04410(6)
Br1 Br 0.35289(6) 0.31465(2) 0.41093(6)
N1 N -0.0435(4) 0.18719(13) 0.0823(4)
N2 N -0.0104(4) 0.16187(13) 0.2847(4)
C1 C -0.1593(5) 0.14781(17) -0.0962(5)
H1 H -0.1835 0.1683 -0.2344
C2 C -0.2491(5) 0.07730(15) -0.0935(5)
C3 C -0.2059(5) 0.05016(16) 0.1161(5)
H2 H -0.2545 0.0026 0.1340
C4 C -0.0894(5) 0.09447(16) 0.2994(5)
H3 H -0.0649 0.0764 0.4403
C5 C -0.4949(5) 0.07840(15) -0.4945(5)
H4 H -0.4922 0.1314 -0.4919
C6 C -0.3775(5) 0.03817(15) -0.3015(5)
C7 C -0.3848(5) -0.04119(16) -0.3107(5)
H5 H -0.3069 -0.0693 -0.1826
N1B N -0.9565(4) -0.18719(13) -1.0823(4)
N2B N -0.9896(4) -0.16187(13) -1.2847(4)
C1B C -0.8407(5) -0.14781(17) -0.9038(5)
H1B H -0.8165 -0.1683 -0.7656
C2B C -0.7509(5) -0.07730(15) -0.9065(5)
C3B C -0.7941(5) -0.05016(16) -1.1161(5)
H2B H -0.7455 -0.0026 -1.1340
C4B C -0.9106(5) -0.09447(16) -1.2994(5)
H3B H -0.9351 -0.0764 -1.4403
C5B C -0.5051(5) -0.07840(15) -0.5055(5)
H4B H -0.5078 -0.1314 -0.5081
C6B C -0.6225(5) -0.03817(15) -0.6985(5)
C7B C -0.6152(5) 0.04119(16) -0.6893(5)
H5B H -0.6931 0.0693 -0.8174
Cu1B Cu -1.14544(6) -0.26912(2) -1.04410(6)
Br1B Br -1.35289(6) -0.31465(2) -1.41093(6)
Cu1A Cu -1.14544(6) -0.23088(2) -1.54410(6)
Cu1C Cu 0.14544(6) 0.23088(2) 0.54410(6)
Br1A Br -1.35289(6) -0.18535(2) -0.91093(6)
Br1C Br 0.35289(6) 0.18535(2) -0.08907(6)
N2A N -0.9896(4) -0.33813(13) -0.7847(4)
N2C N -0.0104(4) 0.33813(13) -0.2153(4)
loop_
_geom_bond_atom_site_label_1
_geom_bond_atom_site_label_2
_geom_bond_site_symmetry_1
_geom_bond_site_symmetry_2
Cu1 Br1 1_555 1_555
Br1 Cu1C 1_555 1_555
N1 Cu1 1_555 1_555
N2 N1 1_555 1_555
C1 N1 1_555 1_555
H1 C1 1_555 1_555
C2 C1 1_555 1_555
C3 C2 1_555 1_555
H2 C3 1_555 1_555
C4 N2 1_555 1_555
H3 C4 1_555 1_555
C5 H4 1_555 1_555
C6 C2 1_555 1_555
C7 C6 1_555 1_555
H5 C7 1_555 1_555
N1B N2B 1_555 1_555
N2B C4B 1_555 1_555
C1B N1B 1_555 1_555
H1B C1B 1_555 1_555
C2B C1B 1_555 1_555
C3B C2B 1_555 1_555
H2B C3B 1_555 1_555
C4B C3B 1_555 1_555
H3B C4B 1_555 1_555
C5B C7 1_555 1_555
H4B C5B 1_555 1_555
C6B C2B 1_555 1_555
C7B C5 1_555 1_555
H5B C7B 1_555 1_555
Cu1B N1B 1_555 1_555
Br1B Cu1B 1_555 1_555
Cu1A N2B 1_555 1_555
Cu1C N2 1_555 1_555
Br1A Cu1B 1_555 1_555
Br1C Cu1 1_555 1_555
N2A Cu1B 1_555 1_555
N2C Cu1 1_555 1_555
C3 C4 1_555 1_555
C5 C6 1_555 1_555
C5B C6B 1_555 1_555
C6B C7B 1_555 1_555
Br1B Cu1A 1_555 1_555

#END
