
#######################################################################
#
#                 Cambridge Crystallographic Data Centre
#                                CCDC 
#
#######################################################################
#
# If this CIF has been generated from an entry in the Cambridge 
# Structural Database, then it will include bibliographic, chemical, 
# crystal, experimental, refinement or atomic coordinate data resulting 
# from the CCDC's data processing and validation procedures.
#
#######################################################################

data_ZIVDIT01
_symmetry_cell_setting           monoclinic
_symmetry_space_group_name_H-M   'P 21/c'
_symmetry_Int_Tables_number      14
_space_group_name_Hall           '-P 2ybc'
loop_
_symmetry_equiv_pos_site_id
_symmetry_equiv_pos_as_xyz
1 x,y,z
2 -x,1/2+y,1/2-z
3 -x,-y,-z
4 x,1/2-y,1/2+z
_cell_length_a                   3.6547(5)
_cell_length_b                   17.127(2)
_cell_length_c                   13.7926(18)
_cell_angle_alpha                90
_cell_angle_beta                 90.46
_cell_angle_gamma                90
_cell_volume                     863.307
loop_
_atom_site_label
_atom_site_type_symbol
_atom_site_fract_x
_atom_site_fract_y
_atom_site_fract_z
C1 C 0.480(4) 0.3621(7) 0.2543(9)
H1 H 0.4929 0.4133 0.2768
C2 C 0.596(4) 0.3028(7) 0.3151(10)
H2 H 0.6825 0.3133 0.3772
C3 C 0.577(3) 0.2257(6) 0.2796(7)
C4 C 0.444(4) 0.2137(7) 0.1899(10)
H3 H 0.4200 0.1629 0.1671
C5 C 0.346(4) 0.2735(7) 0.1320(8)
H4 H 0.2731 0.2634 0.0685
C6 C 0.695(3) 0.1605(6) 0.3447(8)
Cu1 Cu 0.1658(5) 0.43529(7) 0.08299(12)
N1 N 0.352(3) 0.3498(5) 0.1650(7)
N2 N 0.849(3) 0.1714(5) 0.4300(7)
N3 N 0.910(3) 0.0955(6) 0.4610(6)
N4 N 0.806(3) 0.0462(5) 0.3936(7)
N5 N 0.662(3) 0.0842(6) 0.3203(7)
Cu1A Cu 0.8342(5) -0.06471(7) 0.41701(12)
Cu1C Cu 1.1658(5) 0.06471(7) 0.58299(12)
N3C N -0.090(3) 0.4045(6) -0.0390(6)
N4A N 0.194(3) 0.5462(5) 0.1064(7)
loop_
_geom_bond_atom_site_label_1
_geom_bond_atom_site_label_2
_geom_bond_site_symmetry_1
_geom_bond_site_symmetry_2
C1 H1 1_555 1_555
C2 C1 1_555 1_555
H2 C2 1_555 1_555
C3 C2 1_555 1_555
C4 C3 1_555 1_555
H3 C4 1_555 1_555
C5 C4 1_555 1_555
H4 C5 1_555 1_555
C6 C3 1_555 1_555
Cu1 N1 1_555 1_555
N1 C1 1_555 1_555
N2 C6 1_555 1_555
N3 N2 1_555 1_555
N4 N3 1_555 1_555
N5 C6 1_555 1_555
Cu1A N4 1_555 1_555
Cu1C N3 1_555 1_555
N3C Cu1 1_555 1_555
N4A Cu1 1_555 1_555
C5 N1 1_555 1_555
N4 N5 1_555 1_555

#END
