
#######################################################################
#
#                 Cambridge Crystallographic Data Centre
#                                CCDC 
#
#######################################################################
#
# If this CIF has been generated from an entry in the Cambridge 
# Structural Database, then it will include bibliographic, chemical, 
# crystal, experimental, refinement or atomic coordinate data resulting 
# from the CCDC's data processing and validation procedures.
#
#######################################################################

data_ZIXCOA
_symmetry_cell_setting           monoclinic
_symmetry_space_group_name_H-M   'P 21'
_symmetry_Int_Tables_number      4
_space_group_name_Hall           'P 2yb'
loop_
_symmetry_equiv_pos_site_id
_symmetry_equiv_pos_as_xyz
1 x,y,z
2 -x,1/2+y,-z
_cell_length_a                   8.5107(4)
_cell_length_b                   8.9625(5)
_cell_length_c                   13.0810(11)
_cell_angle_alpha                90
_cell_angle_beta                 105.139(6)
_cell_angle_gamma                90
_cell_volume                     963.153
loop_
_atom_site_label
_atom_site_type_symbol
_atom_site_fract_x
_atom_site_fract_y
_atom_site_fract_z
Sr1 Sr 0.46007(2) 0.49999(2) 0.586023(15)
O1 O 1.0175(3) 0.5446(3) 0.72627(17)
O2 O 0.7433(2) 0.3933(2) 0.69469(17)
H1 H 0.815(4) 0.378(5) 0.664(3)
O3 O 0.6195(2) 0.6344(2) 0.75996(16)
H2 H 0.579(5) 0.705(3) 0.787(3)
O4 O 0.4666(2) 0.3531(2) 0.76861(17)
H3 H 0.509(5) 0.272(3) 0.767(3)
O5 O 0.3371(3) 0.4149(3) 0.94626(19)
H4 H 0.252(4) 0.462(5) 0.937(4)
O6 O 1.0470(3) 0.5750(3) 0.89956(17)
C1 C 0.9720(3) 0.5293(3) 0.8078(2)
C2 C 0.8162(3) 0.4398(3) 0.8010(2)
H5 H 0.8451 0.3505 0.8451
C3 C 0.6890(3) 0.5276(3) 0.84018(18)
H6 H 0.7437 0.5809 0.9052
C4 C 0.5577(3) 0.4261(3) 0.8635(2)
H7 H 0.6100 0.3504 0.9153
C5 C 0.4397(3) 0.5152(4) 0.9081(2)
H8 H 0.4993 0.5782 0.9654
H9 H 0.3739 0.5788 0.8534
O7 O -0.4396(2) 0.2784(2) 0.46338(17)
O8 O -0.2288(2) 0.1627(2) 0.37104(16)
H10 H -0.172(4) 0.138(4) 0.333(3)
O9 O -0.0569(2) 0.2601(2) 0.57802(15)
H11 H 0.026(3) 0.255(5) 0.627(2)
O10 O 0.2439(2) 0.2881(2) 0.54873(15)
H12 H 0.271(5) 0.200(2) 0.561(3)
O11 O 0.2346(2) 0.5125(3) 0.40738(14)
H13 H 0.160(4) 0.569(4) 0.413(3)
O12 O -0.3489(2) 0.5080(3) 0.46004(15)
C6 C -0.3415(3) 0.3706(3) 0.44324(19)
C7 C -0.2000(3) 0.3154(3) 0.4001(2)
H14 H -0.1967 0.3740 0.3374
C8 C -0.0412(3) 0.3388(3) 0.48658(19)
H15 H -0.0287 0.4454 0.5034
C9 C 0.1101(3) 0.2844(3) 0.4552(2)
H16 H 0.0922 0.1808 0.4311
C10 C 0.1537(3) 0.3760(3) 0.3681(2)
H17 H 0.2237 0.3171 0.3360
H18 H 0.0550 0.3986 0.3137
Sr1_2 Sr -0.53993(2) 0.49999(2) 0.586023(15)
Sr1A Sr -0.46007(2) -0.00001(2) 0.413977(15)
O7_2 O 0.5604(2) 0.2784(2) 0.46338(17)
O7A O 0.4396(2) 0.7784(2) 0.53662(17)
O8A O 0.2288(2) 0.6627(2) 0.62896(16)
O12_2 O 0.6511(2) 0.5080(3) 0.46004(15)
O13 O 1.0242(4) 0.5747(4) 1.1056(2)
H19 H 1.116(4) 0.572(7) 1.145(4)
H20 H 1.029(7) 0.572(7) 1.043(2)
O14 O 0.1690(4) 0.1837(4) 0.7584(2)
H21 H 0.123(7) 0.185(7) 0.806(4)
H22 H 0.242(5) 0.241(5) 0.786(4)
O15 O 1.1981(4) 0.8447(3) 0.8785(3)
H23 H 1.136(6) 0.913(5) 0.883(5)
H24 H 1.157(7) 0.764(4) 0.885(5)
O16 O 0.6399(3) 0.0965(3) 0.7673(2)
H25 H 0.574(5) 0.031(4) 0.768(4)
H26 H 0.658(6) 0.094(6) 0.709(2)
O17 O 0.4999(3) 0.8672(3) 0.84768(19)
H27 H 0.405(3) 0.871(5) 0.849(4)
H28 H 0.553(5) 0.881(6) 0.908(2)
loop_
_geom_bond_atom_site_label_1
_geom_bond_atom_site_label_2
_geom_bond_site_symmetry_1
_geom_bond_site_symmetry_2
Sr1 O2 1_555 1_555
O1 C1 1_555 1_555
O2 H1 1_555 1_555
O3 Sr1 1_555 1_555
H2 O3 1_555 1_555
O4 Sr1 1_555 1_555
H3 O4 1_555 1_555
O5 H4 1_555 1_555
O6 C1 1_555 1_555
C1 C2 1_555 1_555
C2 O2 1_555 1_555
H5 C2 1_555 1_555
C3 O3 1_555 1_555
H6 C3 1_555 1_555
C4 O4 1_555 1_555
H7 C4 1_555 1_555
C5 O5 1_555 1_555
H8 C5 1_555 1_555
H9 C5 1_555 1_555
O7 C6 1_555 1_555
O8 H10 1_555 1_555
O9 H11 1_555 1_555
O10 Sr1 1_555 1_555
H12 O10 1_555 1_555
O11 Sr1 1_555 1_555
H13 O11 1_555 1_555
O12 C6 1_555 1_555
C6 C7 1_555 1_555
C7 O8 1_555 1_555
H14 C7 1_555 1_555
C8 O9 1_555 1_555
H15 C8 1_555 1_555
C9 O10 1_555 1_555
H16 C9 1_555 1_555
C10 O11 1_555 1_555
H17 C10 1_555 1_555
H18 C10 1_555 1_555
O13 H19 1_555 1_555
H20 O13 1_555 1_555
O14 H21 1_555 1_555
H22 O14 1_555 1_555
O15 H23 1_555 1_555
H24 O15 1_555 1_555
O16 H25 1_555 1_555
H26 O16 1_555 1_555
O17 H27 1_555 1_555
H28 O17 1_555 1_555
Sr1_2 O7 1_555 1_555
Sr1A O7 1_555 1_555
O7_2 Sr1 1_555 1_555
O7A Sr1 1_555 1_555
O8A Sr1 1_555 1_555
O12_2 Sr1 1_555 1_555
C2 C3 1_555 1_555
C3 C4 1_555 1_555
C4 C5 1_555 1_555
O8 Sr1A 1_555 1_555
O12 Sr1_2 1_555 1_555
C7 C8 1_555 1_555
C8 C9 1_555 1_555
C9 C10 1_555 1_555

#END
