
#######################################################################
#
#                 Cambridge Crystallographic Data Centre
#                                CCDC 
#
#######################################################################
#
# If this CIF has been generated from an entry in the Cambridge 
# Structural Database, then it will include bibliographic, chemical, 
# crystal, experimental, refinement or atomic coordinate data resulting 
# from the CCDC's data processing and validation procedures.
#
#######################################################################

data_ZIXSAC
_symmetry_cell_setting           monoclinic
_symmetry_space_group_name_H-M   'P 21/n'
_symmetry_Int_Tables_number      14
_space_group_name_Hall           '-P 2yn'
loop_
_symmetry_equiv_pos_site_id
_symmetry_equiv_pos_as_xyz
1 x,y,z
2 1/2-x,1/2+y,1/2-z
3 -x,-y,-z
4 1/2+x,1/2-y,1/2+z
_cell_length_a                   12.0073(6)
_cell_length_b                   8.4013(4)
_cell_length_c                   16.8652(7)
_cell_angle_alpha                90
_cell_angle_beta                 99.318(3)
_cell_angle_gamma                90
_cell_volume                     1678.86
loop_
_atom_site_label
_atom_site_type_symbol
_atom_site_fract_x
_atom_site_fract_y
_atom_site_fract_z
U1 U 0.737588(12) 0.97126(2) 0.416514(8)
O1 O 0.8791(2) 1.0374(4) 0.43087(17)
O2 O 0.5999(2) 0.8916(4) 0.40664(15)
N1 N 0.7103(3) 1.0920(5) 0.27715(19)
N2 N 0.6659(3) 1.2262(5) 0.4296(2)
N3 N 0.7469(3) 1.0102(5) 0.5682(2)
N4 N 0.8062(3) 0.7226(5) 0.49520(18)
N5 N 0.7838(3) 0.7592(5) 0.32097(19)
N6 N 0.6029(3) 1.1336(5) 0.24457(18)
C1 C 0.7779(3) 1.1701(5) 0.2352(2)
N7 N 0.5865(3) 1.2984(5) 0.41436(19)
C2 C 0.8419(3) 1.0598(6) 0.6156(2)
C3 C 0.6544(3) 0.9908(6) 0.6033(3)
C4 C 0.9162(3) 0.7074(6) 0.5277(2)
C5 C 0.7350(3) 0.6101(6) 0.5137(2)
N8 N 0.6067(3) 1.2335(5) 0.1864(2)
C6 C 0.9030(3) 1.1587(7) 0.2475(2)
N9 N 0.5043(3) 1.3768(5) 0.3975(2)
H1 H 0.9072 1.0719 0.5932
C7 C 0.8456(3) 1.0932(6) 0.6963(2)
C8 C 0.6529(4) 1.0202(6) 0.6828(3)
H2 H 0.5882 0.9556 0.5718
H3 H 0.9670 0.7830 0.5149
C9 C 0.9562(3) 0.5862(6) 0.5782(2)
C10 C 0.7702(4) 0.4834(6) 0.5636(3)
H4 H 0.6589 0.6181 0.4920
H5 H 0.9288 1.0990 0.2955
H6 H 0.9349 1.2637 0.2527
H7 H 0.9260 1.1060 0.2023
H8 H 0.9122 1.1287 0.7271
C11 C 0.7510(4) 1.0737(7) 0.7301(2)
H9 H 0.5875 1.0047 0.7047
H10 H 1.0325 0.5805 0.5996
C12 C 0.8822(4) 0.4727(6) 0.5972(3)
H11 H 0.7190 0.4064 0.5742
H12 H 0.7522 1.0960 0.7843
H13 H 0.9076 0.3901 0.6323
N5A N 0.7162(3) 1.2592(5) 0.17903(19)
U1A U 0.762412(12) 1.47126(2) 0.083486(8)
loop_
_geom_bond_atom_site_label_1
_geom_bond_atom_site_label_2
_geom_bond_site_symmetry_1
_geom_bond_site_symmetry_2
U1 O1 1_555 1_555
O2 U1 1_555 1_555
N1 U1 1_555 1_555
N2 U1 1_555 1_555
N3 U1 1_555 1_555
N4 U1 1_555 1_555
N5 U1 1_555 1_555
N6 N1 1_555 1_555
C1 N1 1_555 1_555
N7 N2 1_555 1_555
C2 N3 1_555 1_555
C3 N3 1_555 1_555
C4 N4 1_555 1_555
C5 N4 1_555 1_555
N8 N6 1_555 1_555
C6 C1 1_555 1_555
N9 N7 1_555 1_555
H1 C2 1_555 1_555
C7 C2 1_555 1_555
C8 C3 1_555 1_555
H2 C3 1_555 1_555
H3 C4 1_555 1_555
C9 C4 1_555 1_555
C10 C5 1_555 1_555
H4 C5 1_555 1_555
H5 C6 1_555 1_555
H6 C6 1_555 1_555
H7 C6 1_555 1_555
H8 C7 1_555 1_555
C11 C7 1_555 1_555
H9 C8 1_555 1_555
H10 C9 1_555 1_555
C12 C9 1_555 1_555
H11 C10 1_555 1_555
H12 C11 1_555 1_555
H13 C12 1_555 1_555
N5A C1 1_555 1_555
U1A N5A 1_555 1_555
N8 N5A 1_555 1_555
C8 C11 1_555 1_555
C10 C12 1_555 1_555

#END
