
#######################################################################
#
#                 Cambridge Crystallographic Data Centre
#                                CCDC 
#
#######################################################################
#
# If this CIF has been generated from an entry in the Cambridge 
# Structural Database, then it will include bibliographic, chemical, 
# crystal, experimental, refinement or atomic coordinate data resulting 
# from the CCDC's data processing and validation procedures.
#
#######################################################################

data_ZIYCOB
_symmetry_cell_setting           orthorhombic
_symmetry_space_group_name_H-M   'P 21 21 21'
_symmetry_Int_Tables_number      19
_space_group_name_Hall           'P 2ac 2ab'
loop_
_symmetry_equiv_pos_site_id
_symmetry_equiv_pos_as_xyz
1 x,y,z
2 1/2-x,-y,1/2+z
3 -x,1/2+y,1/2-z
4 1/2+x,1/2-y,-z
_cell_length_a                   7.9026(17)
_cell_length_b                   11.137(2)
_cell_length_c                   12.978(3)
_cell_angle_alpha                90
_cell_angle_beta                 90
_cell_angle_gamma                90
_cell_volume                     1142.21
loop_
_atom_site_label
_atom_site_type_symbol
_atom_site_fract_x
_atom_site_fract_y
_atom_site_fract_z
C1 C 0.01251(16) 0.82336(9) 0.71376(9)
H1 H 0.0038 0.8522 0.7825
C2 C 0.03975(17) 0.86494(11) 0.54064(9)
C3 C 0.03966(17) 0.74086(12) 0.51973(9)
H2 H 0.0485 0.7111 0.4513
C4 C 0.02613(16) 0.66478(10) 0.60268(9)
C5 C 0.0679(2) 0.49053(13) 0.50114(12)
H3 H -0.0213 0.5080 0.4509
H4 H 0.0784 0.4034 0.5098
H5 H 0.1756 0.5234 0.4765
N1 N 0.01322(13) 0.70563(8) 0.70083(7)
N2 N 0.02295(13) 0.90569(8) 0.63891(8)
N3 N 0.05521(19) 0.94435(11) 0.46412(9)
H6 H 0.063(2) 0.9257(17) 0.4053(12)
H7 H 0.072(2) 1.0095(14) 0.4751(15)
O1 O 0.02518(14) 0.54471(8) 0.59872(7)
O2 O -0.24668(12) 1.04170(9) 0.70996(7)
H8 H -0.265(2) 0.9808(13) 0.7358(13)
H9 H -0.296(2) 1.0935(14) 0.7369(13)
O3 O 0.22892(12) 1.10842(8) 0.65568(8)
H10 H 0.254(2) 1.1710(13) 0.6706(13)
H11 H 0.286(2) 1.0597(14) 0.6810(13)
O4 O -0.08427(12) 1.20785(9) 0.57060(7)
H12 H -0.1795(17) 1.2228(17) 0.5791(13)
H13 H -0.047(2) 1.2126(16) 0.5130(11)
Cu1 Cu -0.009522(18) 1.078195(12) 0.686440(10)
N1B N -0.01322(13) 1.20563(8) 0.79917(7)
Cu1B Cu 0.009522(18) 0.578195(12) 0.813560(10)
O5 O 0.09580(12) 1.20502(9) 0.39422(7)
O6 O -0.15719(11) 1.17025(9) 0.29526(8)
O7 O 0.09647(12) 1.06119(9) 0.25519(8)
O8 O 0.07907(14) 1.27434(9) 0.21795(8)
S1 S 0.03095(4) 1.17747(2) 0.28950(2)
loop_
_geom_bond_atom_site_label_1
_geom_bond_atom_site_label_2
_geom_bond_site_symmetry_1
_geom_bond_site_symmetry_2
C1 H1 1_555 1_555
C2 C3 1_555 1_555
C3 H2 1_555 1_555
C4 C3 1_555 1_555
C5 H3 1_555 1_555
H4 C5 1_555 1_555
H5 C5 1_555 1_555
N1 C1 1_555 1_555
N2 C1 1_555 1_555
N3 C2 1_555 1_555
H6 N3 1_555 1_555
H7 N3 1_555 1_555
O1 C4 1_555 1_555
O2 H8 1_555 1_555
H9 O2 1_555 1_555
O3 H10 1_555 1_555
H11 O3 1_555 1_555
O4 H12 1_555 1_555
H13 O4 1_555 1_555
Cu1 N2 1_555 1_555
O5 S1 1_555 1_555
O6 S1 1_555 1_555
O7 S1 1_555 1_555
O8 S1 1_555 1_555
N1B Cu1 1_555 1_555
Cu1B N1 1_555 1_555
C2 N2 1_555 1_555
C4 N1 1_555 1_555
C5 O1 1_555 1_555
O2 Cu1 1_555 1_555
O3 Cu1 1_555 1_555
O4 Cu1 1_555 1_555

#END
