
#######################################################################
#
#                 Cambridge Crystallographic Data Centre
#                                CCDC 
#
#######################################################################
#
# If this CIF has been generated from an entry in the Cambridge 
# Structural Database, then it will include bibliographic, chemical, 
# crystal, experimental, refinement or atomic coordinate data resulting 
# from the CCDC's data processing and validation procedures.
#
#######################################################################

data_ZIZNON
_symmetry_cell_setting           triclinic
_symmetry_space_group_name_H-M   'P -1'
_symmetry_Int_Tables_number      2
_space_group_name_Hall           '-P 1'
loop_
_symmetry_equiv_pos_site_id
_symmetry_equiv_pos_as_xyz
1 x,y,z
2 -x,-y,-z
_cell_length_a                   8.1495(16)
_cell_length_b                   12.326(2)
_cell_length_c                   13.247(3)
_cell_angle_alpha                63.004(3)
_cell_angle_beta                 76.910(2)
_cell_angle_gamma                85.280(3)
_cell_volume                     1154.55
loop_
_atom_site_label
_atom_site_type_symbol
_atom_site_fract_x
_atom_site_fract_y
_atom_site_fract_z
C1 C 0.0248(6) 0.5609(4) 0.7154(4)
H1 H -0.0840 0.5968 0.7110
H2 H 0.0703 0.5737 0.7700
H3 H 0.0142 0.4750 0.7400
C2 C 0.1420(5) 0.6195(3) 0.5968(3)
H4 H 0.2584 0.5971 0.6041
C3 C 0.1270(6) 0.7571(4) 0.5466(4)
H5 H 0.0093 0.7784 0.5498
H6 H 0.1707 0.7860 0.5926
C4 C 0.1729(6) 0.9472(4) 0.3664(4)
H7 H 0.2136 0.9922 0.4001
H8 H 0.0509 0.9508 0.3814
C5 C 0.2420(6) 1.0085(4) 0.2352(4)
H9 H 0.3638 1.0035 0.2207
H10 H 0.2145 1.0941 0.2048
C6 C 0.1749(6) 0.9537(4) 0.1683(4)
H11 H 0.0527 0.9530 0.1862
H12 H 0.2132 1.0038 0.0857
C7 C 0.3315(5) 0.8064(4) 0.1207(4)
H13 H 0.3559 0.8703 0.0462
C8 C 0.4074(5) 0.6904(4) 0.1374(4)
C9 C 0.5270(5) 0.6938(4) 0.0411(4)
H14 H 0.5464 0.7667 -0.0267
C10 C 0.6185(6) 0.5911(4) 0.0433(4)
C11 C 0.5811(6) 0.4839(4) 0.1417(4)
H15 H 0.6392 0.4147 0.1447
C12 C 0.4565(5) 0.4744(3) 0.2396(3)
C13 C 0.3717(5) 0.5792(3) 0.2392(4)
C14 C 0.4272(5) 0.3536(4) 0.3367(3)
H16 H 0.4835 0.2907 0.3240
C15 C 0.3307(5) 0.1881(4) 0.5175(4)
H17 H 0.2793 0.1451 0.4864
H18 H 0.2613 0.1723 0.5929
C16 C 0.5072(5) 0.1377(3) 0.5328(4)
H19 H 0.4984 0.0505 0.5817
H20 H 0.5771 0.1524 0.4579
C17 C 0.5893(5) 0.1981(4) 0.5875(4)
H21 H 0.5663 0.2844 0.5524
H22 H 0.5368 0.1647 0.6693
C18 C 0.2082(5) 0.3109(4) 0.7108(4)
C19 C 0.1575(6) 0.2293(4) 0.8408(4)
H23 H 0.2386 0.2389 0.8787
H24 H 0.1533 0.1459 0.8548
H25 H 0.0484 0.2516 0.8707
C20 C 0.7567(6) 0.6009(4) -0.0589(4)
H26 H 0.8567 0.6360 -0.0577
H27 H 0.7206 0.6516 -0.1298
H28 H 0.7804 0.5212 -0.0539
N1 N 0.2225(4) 0.8170(3) 0.4244(3)
N2 N 0.2340(4) 0.8287(3) 0.1993(3)
N3 N 0.3329(4) 0.3227(3) 0.4384(3)
Ni1 Ni 0.16115(6) 0.70959(4) 0.35843(4)
Ni2 Ni 0.19685(6) 0.43936(4) 0.48790(4)
O1 O 0.2603(4) 0.5715(2) 0.3316(2)
O2 O 0.0971(4) 0.5835(2) 0.5159(2)
O3 O 0.1036(3) 0.3182(2) 0.6471(2)
O4 O 0.3425(4) 0.3685(3) 0.6683(3)
C1A C 0.9752(6) 0.4391(4) 0.2846(4)
H1A H 1.0840 0.4032 0.2890
H2A H 0.9297 0.4263 0.2300
H3A H 0.9858 0.5250 0.2600
C2A C 0.8580(5) 0.3805(3) 0.4032(3)
H4A H 0.7416 0.4029 0.3959
C3A C 0.8730(6) 0.2429(4) 0.4534(4)
H5A H 0.9907 0.2216 0.4502
H6A H 0.8293 0.2140 0.4074
C4A C 0.8271(6) 0.0528(4) 0.6336(4)
H7A H 0.7864 0.0078 0.5999
H8A H 0.9491 0.0492 0.6186
C5A C 0.7580(6) -0.0085(4) 0.7648(4)
H9A H 0.6362 -0.0035 0.7793
H10A H 0.7855 -0.0941 0.7952
C6A C 0.8251(6) 0.0463(4) 0.8317(4)
H11A H 0.9473 0.0470 0.8138
H12A H 0.7868 -0.0038 0.9143
C7A C 0.6685(5) 0.1936(4) 0.8793(4)
H13A H 0.6441 0.1297 0.9538
C8A C 0.5926(5) 0.3096(4) 0.8626(4)
C9A C 0.4730(5) 0.3062(4) 0.9589(4)
H14A H 0.4536 0.2333 1.0267
C10A C 0.3815(6) 0.4089(4) 0.9567(4)
C11A C 0.4189(6) 0.5161(4) 0.8583(4)
H15A H 0.3608 0.5853 0.8553
C12A C 0.5435(5) 0.5256(3) 0.7604(3)
C13A C 0.6283(5) 0.4208(3) 0.7608(4)
C14A C 0.5728(5) 0.6464(4) 0.6633(3)
H16A H 0.5165 0.7093 0.6760
C15A C 0.6693(5) 0.8119(4) 0.4825(4)
H17A H 0.7207 0.8549 0.5136
H18A H 0.7387 0.8277 0.4071
C16A C 0.4928(5) 0.8623(3) 0.4672(4)
H19A H 0.5016 0.9495 0.4183
H20A H 0.4229 0.8476 0.5421
C17A C 0.4107(5) 0.8019(4) 0.4125(4)
H21A H 0.4337 0.7156 0.4476
H22A H 0.4632 0.8353 0.3307
C20A C 0.2433(6) 0.3991(4) 1.0589(4)
H26A H 0.1433 0.3640 1.0577
H27A H 0.2794 0.3484 1.1298
H28A H 0.2196 0.4788 1.0539
N1A N 0.7775(4) 0.1830(3) 0.5756(3)
N2A N 0.7660(4) 0.1713(3) 0.8007(3)
N3A N 0.6671(4) 0.6773(3) 0.5616(3)
O1A O 0.7397(4) 0.4285(2) 0.6684(2)
O2A O 0.9029(4) 0.4165(2) 0.4841(2)
C18A C -0.2082(5) 0.6891(4) 0.2892(4)
C19A C -0.1575(6) 0.7707(4) 0.1592(4)
H23A H -0.2386 0.7611 0.1213
H24A H -0.1533 0.8541 0.1452
H25A H -0.0484 0.7484 0.1293
Ni1A Ni -0.16115(6) 0.29041(4) 0.64157(4)
Ni2A Ni -0.19685(6) 0.56064(4) 0.51210(4)
O3A O -0.1036(3) 0.6818(2) 0.3529(2)
O4A O -0.3425(4) 0.6315(3) 0.3317(3)
N1A_2 N -0.2225(4) 0.1830(3) 0.5756(3)
N2A_2 N -0.2340(4) 0.1713(3) 0.8007(3)
N3A_2 N -0.3329(4) 0.6773(3) 0.5616(3)
Ni1A_2 Ni 0.83885(6) 0.29041(4) 0.64157(4)
Ni2_2 Ni 1.19685(6) 0.43936(4) 0.48790(4)
Ni2A_2 Ni 0.80315(6) 0.56064(4) 0.51210(4)
O1A_2 O -0.2603(4) 0.4285(2) 0.6684(2)
O2A_2 O -0.0971(4) 0.4165(2) 0.4841(2)
Cl1 Cl 0.24955(15) 0.86645(11) 0.80803(11)
O5 O 0.1724(4) 0.9147(3) 0.7116(3)
O6 O 0.4160(4) 0.8295(3) 0.7768(3)
O7 O 0.1588(4) 0.7727(3) 0.9047(3)
O8 O 0.2697(4) 0.9612(3) 0.8352(3)
loop_
_geom_bond_atom_site_label_1
_geom_bond_atom_site_label_2
_geom_bond_site_symmetry_1
_geom_bond_site_symmetry_2
C1 H1 1_555 1_555
H2 C1 1_555 1_555
H3 C1 1_555 1_555
C2 C1 1_555 1_555
H4 C2 1_555 1_555
C3 C2 1_555 1_555
H5 C3 1_555 1_555
H6 C3 1_555 1_555
C4 H7 1_555 1_555
H8 C4 1_555 1_555
C5 C4 1_555 1_555
H9 C5 1_555 1_555
H10 C5 1_555 1_555
C6 C5 1_555 1_555
H11 C6 1_555 1_555
H12 C6 1_555 1_555
C7 H13 1_555 1_555
C8 C7 1_555 1_555
C9 C8 1_555 1_555
H14 C9 1_555 1_555
C10 C9 1_555 1_555
C11 C10 1_555 1_555
H15 C11 1_555 1_555
C12 C11 1_555 1_555
C13 C8 1_555 1_555
C14 C12 1_555 1_555
H16 C14 1_555 1_555
C15 H17 1_555 1_555
H18 C15 1_555 1_555
C16 C15 1_555 1_555
H19 C16 1_555 1_555
H20 C16 1_555 1_555
C17 C16 1_555 1_555
H21 C17 1_555 1_555
H22 C17 1_555 1_555
C18 C19 1_555 1_555
C19 H23 1_555 1_555
H24 C19 1_555 1_555
H25 C19 1_555 1_555
C20 C10 1_555 1_555
H26 C20 1_555 1_555
H27 C20 1_555 1_555
H28 C20 1_555 1_555
N1 C3 1_555 1_555
N2 C6 1_555 1_555
N3 C14 1_555 1_555
Ni1 N1 1_555 1_555
Ni2 N3 1_555 1_555
O1 C13 1_555 1_555
O2 C2 1_555 1_555
O3 C18 1_555 1_555
O4 C18 1_555 1_555
Cl1 O5 1_555 1_555
O6 Cl1 1_555 1_555
O7 Cl1 1_555 1_555
O8 Cl1 1_555 1_555
C1A H1A 1_555 1_555
H2A C1A 1_555 1_555
H3A C1A 1_555 1_555
C2A C1A 1_555 1_555
H4A C2A 1_555 1_555
C3A C2A 1_555 1_555
H5A C3A 1_555 1_555
H6A C3A 1_555 1_555
C4A H7A 1_555 1_555
H8A C4A 1_555 1_555
C5A C4A 1_555 1_555
H9A C5A 1_555 1_555
H10A C5A 1_555 1_555
C6A C5A 1_555 1_555
H11A C6A 1_555 1_555
H12A C6A 1_555 1_555
C7A H13A 1_555 1_555
C8A C7A 1_555 1_555
C9A C8A 1_555 1_555
H14A C9A 1_555 1_555
C10A C9A 1_555 1_555
C11A C10A 1_555 1_555
H15A C11A 1_555 1_555
C12A C11A 1_555 1_555
C13A C8A 1_555 1_555
C14A C12A 1_555 1_555
H16A C14A 1_555 1_555
C15A H17A 1_555 1_555
H18A C15A 1_555 1_555
C16A C15A 1_555 1_555
H19A C16A 1_555 1_555
H20A C16A 1_555 1_555
C17A N1 1_555 1_555
H21A C17A 1_555 1_555
H22A C17A 1_555 1_555
C20A C10A 1_555 1_555
H26A C20A 1_555 1_555
H27A C20A 1_555 1_555
H28A C20A 1_555 1_555
N1A C17 1_555 1_555
N2A C6A 1_555 1_555
N3A C14A 1_555 1_555
O1A C13A 1_555 1_555
O2A C2A 1_555 1_555
C18A C19A 1_555 1_555
C19A H23A 1_555 1_555
H24A C19A 1_555 1_555
H25A C19A 1_555 1_555
Ni1A O3 1_555 1_555
Ni2A O2 1_555 1_555
O3A Ni1 1_555 1_555
O4A C18A 1_555 1_555
N1A_2 Ni1A 1_555 1_555
N2A_2 Ni1A 1_555 1_555
N3A_2 Ni2A 1_555 1_555
Ni1A_2 N1A 1_555 1_555
Ni2_2 O2A 1_555 1_555
Ni2A_2 N3A 1_555 1_555
O1A_2 Ni1A 1_555 1_555
O2A_2 Ni2 1_555 1_555
C4 N1 1_555 1_555
C7 N2 1_555 1_555
C12 C13 1_555 1_555
C15 N3 1_555 1_555
N2 Ni1 1_555 1_555
Ni1 O1 1_555 1_555
Ni1 O2 1_555 1_555
Ni2 O1 1_555 1_555
Ni2 O2 1_555 1_555
Ni2 O3 1_555 1_555
C3A N1A 1_555 1_555
C4A N1A 1_555 1_555
C7A N2A 1_555 1_555
C12A C13A 1_555 1_555
C15A N3A 1_555 1_555
C16A C17A 1_555 1_555
N2A Ni1A_2 1_555 1_555
O1A Ni1A_2 1_555 1_555
O1A Ni2A_2 1_555 1_555
O2A Ni1A_2 1_555 1_555
O2A Ni2A_2 1_555 1_555
C18A O3A 1_555 1_555
Ni1A O2A_2 1_555 1_555
Ni2A O3A 1_555 1_555
Ni2A O1A_2 1_555 1_555
Ni2A O2A_2 1_555 1_555

#END
