
#######################################################################
#
#                 Cambridge Crystallographic Data Centre
#                                CCDC 
#
#######################################################################
#
# If this CIF has been generated from an entry in the Cambridge 
# Structural Database, then it will include bibliographic, chemical, 
# crystal, experimental, refinement or atomic coordinate data resulting 
# from the CCDC's data processing and validation procedures.
#
#######################################################################

data_ZIZYOY
_symmetry_cell_setting           orthorhombic
_symmetry_space_group_name_H-M   'P b c a'
_symmetry_Int_Tables_number      61
_space_group_name_Hall           '-P 2ac 2ab'
loop_
_symmetry_equiv_pos_site_id
_symmetry_equiv_pos_as_xyz
1 x,y,z
2 1/2-x,-y,1/2+z
3 1/2+x,1/2-y,-z
4 -x,1/2+y,1/2-z
5 -x,-y,-z
6 1/2+x,y,1/2-z
7 1/2-x,1/2+y,z
8 x,1/2-y,1/2+z
_cell_length_a                   18.737(2)
_cell_length_b                   20.667(3)
_cell_length_c                   23.441(3)
_cell_angle_alpha                90
_cell_angle_beta                 90
_cell_angle_gamma                90
_cell_volume                     9077.24
loop_
_atom_site_label
_atom_site_type_symbol
_atom_site_fract_x
_atom_site_fract_y
_atom_site_fract_z
Zn1 Zn 0.59834(6) 0.84542(5) 0.62269(4)
Zn2 Zn 0.54219(6) 1.12665(5) 0.71339(5)
N1 N 0.5710(4) 1.1649(4) 0.6318(3)
N2 N 0.6552(4) 1.1487(4) 0.7233(3)
N3 N 0.5459(4) 1.0334(4) 0.6754(3)
N4 N 0.5566(4) 0.9342(4) 0.6362(3)
N5 N 0.6774(4) 0.8660(4) 0.5550(4)
N6 N 0.7007(4) 0.8362(4) 0.6648(4)
N7 N 0.5455(4) 0.7759(3) 0.6742(3)
N8 N 0.4976(4) 0.6996(4) 0.7315(3)
O1 O 0.4329(3) 1.1106(3) 0.6901(3)
O2 O 0.3580(3) 1.0387(3) 0.6516(3)
O3 O 0.3639(4) 0.9241(4) 0.6167(4)
H1 H 0.3613 0.9605 0.6304
O4 O 0.4464(4) 0.8512(3) 0.6006(3)
O5 O 0.5690(3) 0.7764(3) 0.5603(2)
O6 O 0.5109(4) 0.6832(3) 0.5483(3)
O7 O 0.4574(4) 0.5987(3) 0.6100(3)
H2 H 0.4725 0.6277 0.5893
O8 O 0.4472(3) 0.5791(3) 0.7028(3)
C1 C 0.4178(5) 1.0565(5) 0.6682(4)
C2 C 0.4796(5) 1.0115(5) 0.6609(4)
C3 C 0.4855(5) 0.9509(4) 0.6378(4)
C4 C 0.4300(5) 0.9053(5) 0.6164(4)
C5 C 0.5903(5) 0.9850(5) 0.6593(4)
C6 C 0.6684(5) 0.9919(4) 0.6624(5)
C7 C 0.7076(6) 1.0040(5) 0.6133(6)
H3 H 0.6841 1.0081 0.5785
C8 C 0.7833(5) 1.0104(4) 0.6156(5)
C9 C 0.8143(5) 1.0027(5) 0.6676(5)
C10 C 0.7783(5) 0.9924(4) 0.7147(5)
H4 H 0.8025 0.9887 0.7492
C11 C 0.7041(5) 0.9869(5) 0.7137(6)
H5 H 0.6789 0.9798 0.7474
C12 C 0.8233(5) 1.0228(4) 0.5619(4)
H6 H 0.8486 0.9843 0.5509
H7 H 0.8567 1.0573 0.5679
H8 H 0.7905 1.0347 0.5323
C13 C 0.8963(5) 1.0083(4) 0.6752(4)
H9 H 0.9141 0.9702 0.6939
H10 H 0.9071 1.0457 0.6980
H11 H 0.9185 1.0126 0.6385
C14 C 0.5299(5) 1.1701(5) 0.5865(4)
H12 H 0.4807 1.1682 0.5914
C15 C 0.5564(6) 1.1784(5) 0.5315(5)
H13 H 0.5254 1.1807 0.5006
C16 C 0.6258(6) 1.1830(5) 0.5234(5)
H14 H 0.6435 1.1887 0.4867
C17 C 0.6730(6) 1.1792(5) 0.5695(5)
C18 C 0.6430(6) 1.1691(5) 0.6238(5)
C19 C 0.7495(6) 1.1850(5) 0.5659(5)
H15 H 0.7707 1.1922 0.5307
C20 C 0.7907(6) 1.1800(5) 0.6126(5)
H16 H 0.8398 1.1843 0.6087
C21 C 0.7622(6) 1.1686(5) 0.6669(5)
C22 C 0.6871(6) 1.1622(5) 0.6737(5)
C23 C 0.8019(6) 1.1624(5) 0.7178(5)
H17 H 0.8513 1.1664 0.7166
C24 C 0.7701(5) 1.1510(5) 0.7677(5)
H18 H 0.7970 1.1487 0.8009
C25 C 0.6971(5) 1.1426(5) 0.7696(4)
H19 H 0.6760 1.1322 0.8043
C26 C 0.7115(5) 0.8265(5) 0.7201(5)
H20 H 0.6721 0.8253 0.7443
C27 C 0.7795(6) 0.8180(5) 0.7438(5)
H21 H 0.7851 0.8111 0.7828
C28 C 0.8364(6) 0.8202(5) 0.7090(5)
H22 H 0.8818 0.8142 0.7241
C29 C 0.8290(6) 0.8313(5) 0.6505(5)
C30 C 0.7581(6) 0.8405(5) 0.6308(5)
C31 C 0.7462(5) 0.8542(5) 0.5725(4)
C32 C 0.8035(6) 0.8590(5) 0.5337(5)
C33 C 0.8747(6) 0.8480(5) 0.5557(5)
H23 H 0.9132 0.8492 0.5308
C34 C 0.8866(6) 0.8360(5) 0.6114(5)
H24 H 0.9331 0.8307 0.6244
C35 C 0.7885(6) 0.8744(5) 0.4778(5)
H25 H 0.8254 0.8769 0.4513
C36 C 0.7209(6) 0.8856(5) 0.4614(5)
H26 H 0.7109 0.8967 0.4238
C37 C 0.6657(6) 0.8805(6) 0.5012(5)
H27 H 0.6191 0.8877 0.4893
C38 C 0.5350(5) 0.7281(5) 0.5793(4)
C39 C 0.5223(5) 0.7261(5) 0.6410(4)
C40 C 0.4938(4) 0.6796(4) 0.6756(4)
C41 C 0.4645(5) 0.6157(5) 0.6636(4)
C42 C 0.5288(5) 0.7582(4) 0.7286(4)
C43 C 0.5449(5) 0.8006(4) 0.7778(4)
C44 C 0.5751(5) 0.7740(5) 0.8260(4)
H28 H 0.5806 0.7294 0.8283
C45 C 0.5978(5) 0.8130(5) 0.8719(4)
C46 C 0.5880(6) 0.8803(6) 0.8666(5)
C47 C 0.5577(5) 0.9060(5) 0.8187(4)
H29 H 0.5517 0.9506 0.8160
C48 C 0.5361(5) 0.8671(5) 0.7747(4)
H30 H 0.5153 0.8854 0.7425
C49 C 0.6113(6) 0.9252(5) 0.9163(4)
H31 H 0.5977 0.9689 0.9079
H32 H 0.6622 0.9229 0.9208
H33 H 0.5886 0.9115 0.9510
C50 C 0.6345(4) 0.7831(5) 0.9224(3)
H34 H 0.6098 0.7952 0.9567
H35 H 0.6829 0.7982 0.9242
H36 H 0.6341 0.7369 0.9186
Zn2C Zn 0.45781(6) 0.62665(5) 0.78661(5)
N8C N 0.5024(4) 1.1996(4) 0.7685(3)
O8C O 0.5528(3) 1.0791(3) 0.7972(3)
O9 O 0.8295(4) 0.7572(6) 0.8786(4)
H37 H 0.8639 0.7813 0.8906
loop_
_geom_bond_atom_site_label_1
_geom_bond_atom_site_label_2
_geom_bond_site_symmetry_1
_geom_bond_site_symmetry_2
Zn1 N4 1_555 1_555
Zn2 N1 1_555 1_555
N1 C14 1_555 1_555
N2 Zn2 1_555 1_555
N3 Zn2 1_555 1_555
N4 C3 1_555 1_555
N5 Zn1 1_555 1_555
N6 Zn1 1_555 1_555
N7 Zn1 1_555 1_555
N8 C40 1_555 1_555
O1 Zn2 1_555 1_555
O2 C1 1_555 1_555
O3 H1 1_555 1_555
O4 C4 1_555 1_555
O5 Zn1 1_555 1_555
O6 C38 1_555 1_555
O7 H2 1_555 1_555
O8 C41 1_555 1_555
C1 O1 1_555 1_555
C2 N3 1_555 1_555
C3 C2 1_555 1_555
C4 O3 1_555 1_555
C5 N3 1_555 1_555
C6 C5 1_555 1_555
C7 C6 1_555 1_555
H3 C7 1_555 1_555
C8 C7 1_555 1_555
C9 C8 1_555 1_555
C10 C9 1_555 1_555
H4 C10 1_555 1_555
C11 C6 1_555 1_555
H5 C11 1_555 1_555
C12 C8 1_555 1_555
H6 C12 1_555 1_555
H7 C12 1_555 1_555
H8 C12 1_555 1_555
C13 C9 1_555 1_555
H9 C13 1_555 1_555
H10 C13 1_555 1_555
H11 C13 1_555 1_555
C14 H12 1_555 1_555
C15 C14 1_555 1_555
H13 C15 1_555 1_555
C16 C15 1_555 1_555
H14 C16 1_555 1_555
C17 C16 1_555 1_555
C18 N1 1_555 1_555
C19 C17 1_555 1_555
H15 C19 1_555 1_555
C20 C19 1_555 1_555
H16 C20 1_555 1_555
C21 C20 1_555 1_555
C22 N2 1_555 1_555
C23 C21 1_555 1_555
H17 C23 1_555 1_555
C24 C23 1_555 1_555
H18 C24 1_555 1_555
C25 N2 1_555 1_555
H19 C25 1_555 1_555
C26 N6 1_555 1_555
H20 C26 1_555 1_555
C27 C26 1_555 1_555
H21 C27 1_555 1_555
C28 C27 1_555 1_555
H22 C28 1_555 1_555
C29 C28 1_555 1_555
C30 N6 1_555 1_555
C31 N5 1_555 1_555
C32 C31 1_555 1_555
C33 C32 1_555 1_555
H23 C33 1_555 1_555
C34 C29 1_555 1_555
H24 C34 1_555 1_555
C35 C32 1_555 1_555
H25 C35 1_555 1_555
C36 C35 1_555 1_555
H26 C36 1_555 1_555
C37 N5 1_555 1_555
H27 C37 1_555 1_555
C38 O5 1_555 1_555
C39 N7 1_555 1_555
C40 C39 1_555 1_555
C41 O7 1_555 1_555
C42 N7 1_555 1_555
C43 C42 1_555 1_555
C44 C43 1_555 1_555
H28 C44 1_555 1_555
C45 C44 1_555 1_555
C46 C45 1_555 1_555
C47 C46 1_555 1_555
H29 C47 1_555 1_555
C48 C43 1_555 1_555
H30 C48 1_555 1_555
C49 C46 1_555 1_555
H31 C49 1_555 1_555
H32 C49 1_555 1_555
H33 C49 1_555 1_555
C50 C45 1_555 1_555
H34 C50 1_555 1_555
H35 C50 1_555 1_555
H36 C50 1_555 1_555
O9 H37 1_555 1_555
Zn2C N8 1_555 1_555
N8C Zn2 1_555 1_555
O8C Zn2 1_555 1_555
N4 C5 1_555 1_555
N8 C42 1_555 1_555
O8 Zn2C 1_555 1_555
C1 C2 1_555 1_555
C3 C4 1_555 1_555
C10 C11 1_555 1_555
C17 C18 1_555 1_555
C18 C22 1_555 1_555
C21 C22 1_555 1_555
C24 C25 1_555 1_555
C29 C30 1_555 1_555
C30 C31 1_555 1_555
C33 C34 1_555 1_555
C36 C37 1_555 1_555
C38 C39 1_555 1_555
C40 C41 1_555 1_555
C47 C48 1_555 1_555

#END
