
#######################################################################
#
#                 Cambridge Crystallographic Data Centre
#                                CCDC 
#
#######################################################################
#
# If this CIF has been generated from an entry in the Cambridge 
# Structural Database, then it will include bibliographic, chemical, 
# crystal, experimental, refinement or atomic coordinate data resulting 
# from the CCDC's data processing and validation procedures.
#
#######################################################################

data_ZOBFUR
_symmetry_cell_setting           monoclinic
_symmetry_space_group_name_H-M   'C 2/c'
_symmetry_Int_Tables_number      15
_space_group_name_Hall           '-C 2yn'
loop_
_symmetry_equiv_pos_site_id
_symmetry_equiv_pos_as_xyz
1 x,y,z
2 -x,y,1/2-z
3 1/2+x,1/2+y,z
4 1/2-x,1/2+y,1/2-z
5 -x,-y,-z
6 x,-y,1/2+z
7 1/2-x,1/2-y,-z
8 1/2+x,1/2-y,1/2+z
_cell_length_a                   19.431(6)
_cell_length_b                   5.928(4)
_cell_length_c                   12.181(5)
_cell_angle_alpha                90
_cell_angle_beta                 111.71(2)
_cell_angle_gamma                90
_cell_volume                     1303.57
loop_
_atom_site_label
_atom_site_type_symbol
_atom_site_fract_x
_atom_site_fract_y
_atom_site_fract_z
Mn1 Mn 0.2500 -0.2500 0.5000
S1 S 0.9346(1) 0.2532(1) 0.9391(1)
O1 O 0.7502(1) -0.4727(3) 0.8554(1)
N1 N 0.8303(1) -0.0399(3) 0.9660(2)
N2 N 0.3487(1) -0.0470(3) 0.6297(1)
N3 N 0.3476(1) 0.1411(3) 0.6974(2)
N4 N 0.4619(1) 0.0564(2) 0.7280(1)
C1 C 0.8731(1) 0.0825(3) 0.9542(2)
C2 C 0.4160(1) 0.1991(4) 0.7561(2)
C3 C 0.4177(1) -0.0937(3) 0.6494(2)
N4A N 0.5381(1) 0.0564(2) 0.7720(1)
C2A C 0.5840(1) 0.1991(4) 0.7439(2)
N3A N 0.6524(1) 0.1411(3) 0.8026(2)
N2A N 0.6513(1) -0.0470(3) 0.8703(1)
Mn1A Mn 0.7500 -0.2500 1.0000
O1F O 0.7498(1) -0.0273(3) 1.1446(1)
N1F N 0.6697(1) -0.4601(3) 1.0340(2)
C1F C 0.6269(1) -0.5825(3) 1.0458(2)
S1F S 0.5654(1) -0.7532(1) 1.0609(1)
N2G N 0.8487(1) -0.4530(3) 1.1297(1)
C3A C 0.5823(1) -0.0937(3) 0.8506(2)
loop_
_geom_bond_atom_site_label_1
_geom_bond_atom_site_label_2
_geom_bond_site_symmetry_1
_geom_bond_site_symmetry_2
Mn1 N2 1_555 1_555
S1 C1 1_555 1_555
O1 Mn1A 1_555 1_555
N1 C1 1_555 1_555
N2 N3 1_555 1_555
N3 C2 1_555 1_555
N4 C2 1_555 1_555
C3 N2 1_555 1_555
N4A N4 1_555 1_555
C2A N4A 1_555 1_555
N3A C2A 1_555 1_555
N2A N3A 1_555 1_555
Mn1A N1 1_555 1_555
O1F Mn1A 1_555 1_555
N1F Mn1A 1_555 1_555
C1F N1F 1_555 1_555
S1F C1F 1_555 1_555
N2G Mn1A 1_555 1_555
C3A N4A 1_555 1_555
N4 C3 1_555 1_555
N2A Mn1A 1_555 1_555
N2A C3A 1_555 1_555

#END
