
#######################################################################
#
#                 Cambridge Crystallographic Data Centre
#                                CCDC 
#
#######################################################################
#
# If this CIF has been generated from an entry in the Cambridge 
# Structural Database, then it will include bibliographic, chemical, 
# crystal, experimental, refinement or atomic coordinate data resulting 
# from the CCDC's data processing and validation procedures.
#
#######################################################################

data_ZOBWUK
_symmetry_cell_setting           triclinic
_symmetry_space_group_name_H-M   'P -1'
_symmetry_Int_Tables_number      2
_space_group_name_Hall           '-P 1'
loop_
_symmetry_equiv_pos_site_id
_symmetry_equiv_pos_as_xyz
1 x,y,z
2 -x,-y,-z
_cell_length_a                   11.369(2)
_cell_length_b                   13.198(2)
_cell_length_c                   13.395(2)
_cell_angle_alpha                102.149(5)
_cell_angle_beta                 103.237(5)
_cell_angle_gamma                90.795(3)
_cell_volume                     1908.6
loop_
_atom_site_label
_atom_site_type_symbol
_atom_site_fract_x
_atom_site_fract_y
_atom_site_fract_z
K1 K -0.00662(4) 0.08826(4) 0.12067(4)
K2 K -0.11120(5) 0.44537(4) 0.58006(4)
F1 F 0.59858(16) -0.34586(15) 0.07740(15)
F2 F -0.15747(15) 0.55248(12) 0.05283(12)
O1 O 0.08647(13) -0.14211(11) 0.06685(12)
O2 O 0.20400(14) -0.03307(11) 0.22748(12)
O3 O 0.18962(13) 0.00619(11) 0.05903(12)
O4 O 0.01472(13) 0.20895(11) 0.31835(11)
O5 O 0.05471(13) 0.37228(10) 0.45307(11)
O6 O -0.13661(13) 0.28405(11) 0.41622(11)
O7 O -0.30294(17) 0.46193(16) 0.68139(15)
C1 C 0.3182(2) -0.15083(17) 0.10621(17)
C2 C 0.4239(2) -0.1423(2) 0.18519(19)
C3 C 0.5186(2) -0.2064(2) 0.1761(2)
C4 C 0.5061(3) -0.2815(2) 0.0861(2)
C5 C 0.4050(2) -0.2949(2) 0.0058(2)
C6 C 0.3120(2) -0.22962(18) 0.01711(18)
C7 C 0.0702(2) -0.22175(17) 0.11964(18)
C8 C 0.0745(2) -0.17974(18) 0.23610(19)
C9 C 0.1886(2) -0.10849(18) 0.28589(18)
C10 C -0.0385(3) -0.1230(2) 0.2510(2)
C11 C 0.0803(3) -0.27189(19) 0.2899(2)
C12 C 0.2842(2) 0.07910(18) 0.05643(19)
C13 C 0.3333(3) 0.0365(2) -0.0401(2)
C14 C 0.2237(2) 0.1791(2) 0.0442(2)
C15 C 0.3865(3) 0.1012(2) 0.1546(2)
C16 C -0.07545(19) 0.37110(16) 0.27556(16)
C17 C -0.1673(2) 0.44022(17) 0.27502(18)
C18 C -0.1955(2) 0.50148(18) 0.20140(19)
C19 C -0.1306(2) 0.49312(18) 0.12598(18)
C20 C -0.0387(2) 0.42785(18) 0.12205(18)
C21 C -0.0118(2) 0.36818(17) 0.19714(17)
C22 C 0.0968(2) 0.15998(17) 0.38783(18)
C23 C 0.1969(2) 0.23580(18) 0.46308(18)
C24 C 0.1339(2) 0.32132(17) 0.52212(17)
C25 C 0.2763(2) 0.2810(2) 0.4034(2)
C26 C 0.2735(3) 0.1791(2) 0.5407(2)
C27 C -0.2383(2) 0.20900(18) 0.37040(18)
C28 C -0.3358(2) 0.2474(2) 0.4274(2)
C29 C -0.2035(3) 0.10296(19) 0.3905(2)
C30 C -0.2849(2) 0.2004(2) 0.2536(2)
C31 C -0.2931(4) 0.4966(5) 0.7902(3)
C32 C -0.4076(4) 0.5190(4) 0.8097(4)
C33 C -0.4953(4) 0.4770(5) 0.7108(4)
C34 C -0.4247(3) 0.4394(5) 0.6361(3)
B1 B 0.2036(2) -0.07797(19) 0.1166(2)
B2 B -0.0377(2) 0.30317(19) 0.36556(19)
H1 H 0.43163 -0.09051 0.24785
H2 H 0.59011 -0.19834 0.23089
H3 H 0.39838 -0.3474 -0.05616
H4 H 0.24094 -0.23899 -0.03827
H5 H 0.13425 -0.27113 0.1135
H6 H -0.00893 -0.26033 0.08499
H7 H 0.18506 -0.07253 0.35777
H8 H 0.25984 -0.15107 0.2919
H9 H -0.1106 -0.17031 0.21836
H10 H -0.04339 -0.06311 0.21794
H11 H -0.03397 -0.09903 0.32625
H12 H 0.26821 0.03001 -0.10378
H13 H 0.36395 -0.03195 -0.03606
H14 H 0.39912 0.08395 -0.04247
H15 H 0.20431 0.21251 0.11056
H16 H 0.14904 0.16336 -0.01151
H17 H 0.2787 0.226 0.02568
H18 H 0.43619 0.04119 0.15536
H19 H 0.35275 0.1144 0.2169
H20 H 0.43665 0.1624 0.15513
H21 H -0.2125 0.44554 0.32723
H22 H -0.25828 0.54808 0.20331
H23 H 0.00552 0.42344 0.06928
H24 H 0.05274 0.32336 0.19528
H25 H 0.13396 0.10406 0.34598
H26 H 0.05139 0.12761 0.42915
H27 H 0.08704 0.29088 0.56376
H28 H 0.19566 0.37288 0.57164
H29 H 0.33763 0.33138 0.45311
H30 H 0.22594 0.31563 0.35256
H31 H 0.31628 0.22493 0.36617
H32 H 0.22204 0.15175 0.57974
H33 H 0.33735 0.22749 0.58989
H34 H 0.31035 0.12156 0.50217
H35 H -0.35669 0.3165 0.41598
H36 H -0.30571 0.25114 0.50283
H37 H -0.40794 0.19921 0.40015
H38 H -0.16515 0.10971 0.46514
H39 H -0.14673 0.07512 0.34813
H40 H -0.27633 0.0557 0.37108
H41 H -0.21931 0.18183 0.21806
H42 H -0.31406 0.26714 0.24088
H43 H -0.35149 0.14659 0.22603
H44 H -0.25898 0.4423 0.82732
H45 H -0.23735 0.55974 0.81752
H46 H -0.4131 0.59492 0.83163
H47 H -0.42239 0.48588 0.86591
H48 H -0.54757 0.41973 0.71822
H49 H -0.54705 0.53164 0.68839
H50 H -0.4408 0.36332 0.61065
H51 H -0.44845 0.47209 0.57501
H52 H 0.00806 -0.31913 0.25734
H53 H 0.0837 -0.24641 0.36479
H54 H 0.1528 -0.30902 0.282
K1A K 0.00662(4) -0.08826(4) -0.12067(4)
K2A K 0.11120(5) 0.55463(4) 0.41994(4)
O1A O -0.08647(13) 0.14211(11) -0.06685(12)
O3A O -0.18962(13) -0.00619(11) -0.05903(12)
O5A O -0.05471(13) 0.62772(10) 0.54693(11)
C16A C 0.07545(19) 0.62890(16) 0.72444(16)
loop_
_geom_bond_atom_site_label_1
_geom_bond_atom_site_label_2
_geom_bond_site_symmetry_1
_geom_bond_site_symmetry_2
K1 O1 1_555 1_555
K2 O5 1_555 1_555
F1 C4 1_555 1_555
F2 C19 1_555 1_555
O1 C7 1_555 1_555
O2 K1 1_555 1_555
O3 K1 1_555 1_555
O4 K1 1_555 1_555
O5 C24 1_555 1_555
O6 K2 1_555 1_555
O7 K2 1_555 1_555
C1 C2 1_555 1_555
C2 C3 1_555 1_555
C3 C4 1_555 1_555
C4 C5 1_555 1_555
C5 C6 1_555 1_555
C6 C1 1_555 1_555
C7 C8 1_555 1_555
C8 C9 1_555 1_555
C9 O2 1_555 1_555
C10 C8 1_555 1_555
C11 C8 1_555 1_555
C12 O3 1_555 1_555
C13 C12 1_555 1_555
C14 C12 1_555 1_555
C15 C12 1_555 1_555
C16 C17 1_555 1_555
C17 C18 1_555 1_555
C18 C19 1_555 1_555
C19 C20 1_555 1_555
C20 C21 1_555 1_555
C21 C16 1_555 1_555
C22 O4 1_555 1_555
C23 C22 1_555 1_555
C24 C23 1_555 1_555
C25 C23 1_555 1_555
C26 C23 1_555 1_555
C27 O6 1_555 1_555
C28 C27 1_555 1_555
C29 C27 1_555 1_555
C30 C27 1_555 1_555
C31 O7 1_555 1_555
C32 C31 1_555 1_555
C33 C32 1_555 1_555
C34 O7 1_555 1_555
B1 O1 1_555 1_555
B2 O4 1_555 1_555
H1 C2 1_555 1_555
H2 C3 1_555 1_555
H3 C5 1_555 1_555
H4 C6 1_555 1_555
H5 C7 1_555 1_555
H6 C7 1_555 1_555
H7 C9 1_555 1_555
H8 C9 1_555 1_555
H9 C10 1_555 1_555
H10 C10 1_555 1_555
H11 C10 1_555 1_555
H12 C13 1_555 1_555
H13 C13 1_555 1_555
H14 C13 1_555 1_555
H15 C14 1_555 1_555
H16 C14 1_555 1_555
H17 C14 1_555 1_555
H18 C15 1_555 1_555
H19 C15 1_555 1_555
H20 C15 1_555 1_555
H21 C17 1_555 1_555
H22 C18 1_555 1_555
H23 C20 1_555 1_555
H24 C21 1_555 1_555
H25 C22 1_555 1_555
H26 C22 1_555 1_555
H27 C24 1_555 1_555
H28 C24 1_555 1_555
H29 C25 1_555 1_555
H30 C25 1_555 1_555
H31 C25 1_555 1_555
H32 C26 1_555 1_555
H33 C26 1_555 1_555
H34 C26 1_555 1_555
H35 C28 1_555 1_555
H36 C28 1_555 1_555
H37 C28 1_555 1_555
H38 C29 1_555 1_555
H39 C29 1_555 1_555
H40 C29 1_555 1_555
H41 C30 1_555 1_555
H42 C30 1_555 1_555
H43 C30 1_555 1_555
H44 C31 1_555 1_555
H45 C31 1_555 1_555
H46 C32 1_555 1_555
H47 C32 1_555 1_555
H48 C33 1_555 1_555
H49 C33 1_555 1_555
H50 C34 1_555 1_555
H51 C34 1_555 1_555
H52 C11 1_555 1_555
H53 C11 1_555 1_555
H54 C11 1_555 1_555
K1A O1 1_555 1_555
K2A O5 1_555 1_555
O1A K1 1_555 1_555
O3A K1 1_555 1_555
O5A K2 1_555 1_555
C16A K2 1_555 1_555
O2 B1 1_555 1_555
O3 B1 1_555 1_555
O3 K1A 1_555 1_555
O5 B2 1_555 1_555
O6 B2 1_555 1_555
C1 B1 1_555 1_555
C16 B2 1_555 1_555
C16 K2A 1_555 1_555
C33 C34 1_555 1_555
K1A O1A 1_555 1_555
K1A O3A 1_555 1_555
K2A O5A 1_555 1_555

#END
