
#######################################################################
#
#                 Cambridge Crystallographic Data Centre
#                                CCDC 
#
#######################################################################
#
# If this CIF has been generated from an entry in the Cambridge 
# Structural Database, then it will include bibliographic, chemical, 
# crystal, experimental, refinement or atomic coordinate data resulting 
# from the CCDC's data processing and validation procedures.
#
#######################################################################

data_ZOBYOG
_symmetry_cell_setting           tetragonal
_symmetry_space_group_name_H-M   'I 41/a'
_symmetry_Int_Tables_number      88
_space_group_name_Hall           '-I 4ad'
loop_
_symmetry_equiv_pos_site_id
_symmetry_equiv_pos_as_xyz
1 x,y,z
2 1/2-x,-y,1/2+z
3 3/4-y,1/4+x,1/4+z
4 3/4+y,3/4-x,3/4+z
5 1/2+x,1/2+y,1/2+z
6 -x,1/2-y,z
7 1/4-y,3/4+x,3/4+z
8 1/4+y,1/4-x,1/4+z
9 -x,-y,-z
10 1/2+x,y,1/2-z
11 1/4+y,3/4-x,3/4-z
12 1/4-y,1/4+x,1/4-z
13 1/2-x,1/2-y,1/2-z
14 x,1/2+y,-z
15 3/4+y,1/4-x,1/4-z
16 3/4-y,3/4+x,3/4-z
_cell_length_a                   20.797(3)
_cell_length_b                   20.797(3)
_cell_length_c                   16.012(3)
_cell_angle_alpha                90
_cell_angle_beta                 90
_cell_angle_gamma                90
_cell_volume                     6925.43
loop_
_atom_site_label
_atom_site_type_symbol
_atom_site_fract_x
_atom_site_fract_y
_atom_site_fract_z
C1 C 0.3964(7) 0.6375(6) 0.4889(9)
C2 C 0.3580(5) 0.6199(5) 0.5614(7)
C3 C 0.3197(5) 0.6561(4) 0.6139(7)
C4 C 0.3080(7) 0.7254(5) 0.6165(10)
C5 C 0.3174(4) 0.5575(4) 0.6557(6)
C6 C 0.3010(6) 0.5002(4) 0.7041(7)
C7 C 0.2357(7) 0.4842(6) 0.7174(8)
H1 H 0.2043 0.5114 0.6962
C8 C 0.2166(9) 0.4306(7) 0.7600(10)
H2 H 0.1731 0.4228 0.7686
C9 C 0.2613(11) 0.3885(8) 0.7901(12)
C10 C 0.3269(12) 0.4017(8) 0.7801(12)
C11 C 0.3473(9) 0.4602(7) 0.7350(12)
H3 H 0.3907 0.4695 0.7278
C12 C 0.3721(9) 0.3610(8) 0.8105(12)
H4 H 0.4157 0.3704 0.8080
C13 C 0.3493(9) 0.3045(8) 0.8457(12)
H5 H 0.3791 0.2727 0.8585
C14 C 0.2855(9) 0.2922(8) 0.8630(12)
H6 H 0.2742 0.2574 0.8965
C15 C 0.2404(9) 0.3302(8) 0.8316(13)
H7 H 0.1970 0.3199 0.8360
C16 C 0.3904(9) 0.3591(7) 0.5733(12)
H8 H 0.3569 0.3600 0.6145
H9 H 0.4162 0.3213 0.5811
H10 H 0.3717 0.3584 0.5185
N1 N 0.3570(4) 0.5582(4) 0.5888(6)
N2 N 0.2942(4) 0.6163(4) 0.6729(6)
O1 O 0.4258(5) 0.5939(4) 0.4512(6)
O2 O 0.3973(6) 0.6970(5) 0.4640(7)
O3 O 0.3302(6) 0.7611(4) 0.5601(8)
O4 O 0.2742(6) 0.7452(4) 0.6768(8)
O5 O 0.4302(7) 0.4156(5) 0.5821(7)
Zn1 Zn 0.41530(5) 0.50012(7) 0.51899(11)
N2C N 0.3663(4) 0.4558(4) 0.4229(6)
O4C O 0.4952(4) 0.4758(6) 0.4268(8)
O4K O 0.5048(4) 0.5242(6) 0.5732(8)
Zn1B Zn 0.24988(7) 0.66530(5) 0.76899(11)
Zn1N Zn 0.25012(7) 0.83470(5) 0.73101(11)
loop_
_geom_bond_atom_site_label_1
_geom_bond_atom_site_label_2
_geom_bond_site_symmetry_1
_geom_bond_site_symmetry_2
C1 C2 1_555 1_555
C2 C3 1_555 1_555
C3 C4 1_555 1_555
C4 O3 1_555 1_555
C5 C6 1_555 1_555
C6 C7 1_555 1_555
C7 H1 1_555 1_555
C8 C7 1_555 1_555
H2 C8 1_555 1_555
C9 C8 1_555 1_555
C10 C9 1_555 1_555
C11 C6 1_555 1_555
H3 C11 1_555 1_555
C12 C10 1_555 1_555
H4 C12 1_555 1_555
C13 C12 1_555 1_555
H5 C13 1_555 1_555
C14 C13 1_555 1_555
H6 C14 1_555 1_555
C15 C9 1_555 1_555
H7 C15 1_555 1_555
C16 H8 1_555 1_555
H9 C16 1_555 1_555
H10 C16 1_555 1_555
N1 C2 1_555 1_555
N2 C3 1_555 1_555
O1 C1 1_555 1_555
O2 C1 1_555 1_555
O4 C4 1_555 1_555
O5 C16 1_555 1_555
Zn1 N1 1_555 1_555
N2C Zn1 1_555 1_555
O4C Zn1 1_555 1_555
O4K Zn1 1_555 1_555
Zn1B N2 1_555 1_555
Zn1N O4 1_555 1_555
C5 N1 1_555 1_555
C5 N2 1_555 1_555
C10 C11 1_555 1_555
C14 C15 1_555 1_555
O1 Zn1 1_555 1_555
O4 Zn1B 1_555 1_555
O5 Zn1 1_555 1_555

#END
