
#######################################################################
#
#                 Cambridge Crystallographic Data Centre
#                                CCDC 
#
#######################################################################
#
# If this CIF has been generated from an entry in the Cambridge 
# Structural Database, then it will include bibliographic, chemical, 
# crystal, experimental, refinement or atomic coordinate data resulting 
# from the CCDC's data processing and validation procedures.
#
#######################################################################

data_ZOBYUM
_symmetry_cell_setting           orthorhombic
_symmetry_space_group_name_H-M   'C 2 2 21'
_symmetry_Int_Tables_number      20
_space_group_name_Hall           'C 2n 2'
loop_
_symmetry_equiv_pos_site_id
_symmetry_equiv_pos_as_xyz
1 x,y,z
2 -x,-y,1/2+z
3 -x,y,1/2-z
4 x,-y,-z
5 1/2+x,1/2+y,z
6 1/2-x,1/2-y,1/2+z
7 1/2-x,1/2+y,1/2-z
8 1/2+x,1/2-y,-z
_cell_length_a                   11.618(4)
_cell_length_b                   14.064(5)
_cell_length_c                   13.422(4)
_cell_angle_alpha                90
_cell_angle_beta                 90
_cell_angle_gamma                90
_cell_volume                     2193.1
loop_
_atom_site_label
_atom_site_type_symbol
_atom_site_fract_x
_atom_site_fract_y
_atom_site_fract_z
Mn1 Mn -0.01909(6) 0.0000 0.0000
N1 N -0.0104(2) -0.0018(2) 0.16691(18)
N2 N -0.2144(4) 0.0000 0.0000
O1 O -0.0183(3) -0.15319(19) 0.03613(19)
C1 C -0.0064(4) -0.0937(2) 0.1988(3)
C2 C 0.0000 0.0506(3) 0.2500
C3 C -0.2741(3) -0.0805(3) -0.0044(5)
C4 C -0.0117(4) -0.1719(3) 0.1264(3)
H1 H -0.2338 -0.1374 -0.0096
O2 O -0.0088(4) -0.25706(19) 0.1600(2)
N3 N -0.8231(4) 0.0000 0.0000
C5 C -0.7623(4) 0.0780(4) 0.0196(5)
H2 H -0.8025 0.1337 0.0333
C6 C 0.0000 0.1553(4) 0.2500
C7 C -0.3930(4) -0.0839(3) -0.0017(5)
H3 H -0.4306 -0.1423 -0.0009
C8 C 0.1021(4) 0.2051(3) 0.2596(4)
H4 H 0.1710 0.1723 0.2673
C9 C -0.4559(4) 0.0000 0.0000
C10 C 0.1022(5) 0.3058(3) 0.2576(5)
C11 C -0.5828(4) 0.0000 0.0000
C12 C 0.0000 0.3550(5) 0.2500
C13 C 0.1873(9) 0.3597(6) 0.2612(9)
H5 H 0.2595 0.3316 0.2664
C14 C -0.6440(4) 0.0816(4) 0.0211(4)
H6 H -0.6059 0.1381 0.0359
C15 C 0.0000 0.4578(5) 0.2500
C16 C 0.1831(12) 0.4582(7) 0.2580(10)
H7 H 0.2517 0.4922 0.2600
C17 C 0.0828(9) 0.5064(7) 0.2520(8)
N1B N 0.0104(2) -0.0018(2) 0.33309(18)
O1B O 0.0183(3) -0.15319(19) 0.46387(19)
C1B C 0.0064(4) -0.0937(2) 0.3012(3)
C4B C 0.0117(4) -0.1719(3) 0.3736(3)
O2B O 0.0088(4) -0.25706(19) 0.3400(2)
C8B C -0.1021(4) 0.2051(3) 0.2404(4)
H4B H -0.1710 0.1723 0.2327
C10B C -0.1022(5) 0.3058(3) 0.2424(5)
C13B C -0.1873(9) 0.3597(6) 0.2388(9)
H5B H -0.2595 0.3316 0.2336
C16B C -0.1831(12) 0.4582(7) 0.2420(10)
H7B H -0.2517 0.4922 0.2400
C17B C -0.0828(9) 0.5064(7) 0.2480(8)
C3C C -0.2741(3) 0.0805(3) 0.0044(5)
H1C H -0.2338 0.1374 0.0096
C7C C -0.3930(4) 0.0839(3) 0.0017(5)
H3C H -0.4306 0.1423 0.0009
C14C C -0.6440(4) -0.0816(4) -0.0211(4)
H6C H -0.6059 -0.1381 -0.0359
C5C C -0.7623(4) -0.0780(4) -0.0196(5)
H2C H -0.8025 -0.1337 -0.0333
Mn1_2 Mn -1.01909(6) 0.0000 0.0000
Mn1A Mn 0.01909(6) 0.0000 0.5000
N1C N -0.0104(2) 0.0018(2) -0.16691(18)
O1C O -0.0183(3) 0.15319(19) -0.03613(19)
N3_2 N 0.1769(4) 0.0000 0.0000
loop_
_geom_bond_atom_site_label_1
_geom_bond_atom_site_label_2
_geom_bond_site_symmetry_1
_geom_bond_site_symmetry_2
Mn1 N1 1_555 1_555
N1 C1 1_555 1_555
N2 Mn1 1_555 1_555
O1 Mn1 1_555 1_555
C1 C4 1_555 1_555
C2 N1 1_555 1_555
C3 N2 1_555 1_555
C4 O1 1_555 1_555
H1 C3 1_555 1_555
O2 C4 1_555 1_555
N3 C5 1_555 1_555
C5 H2 1_555 1_555
C6 C2 1_555 1_555
C7 C3 1_555 1_555
H3 C7 1_555 1_555
C8 C6 1_555 1_555
H4 C8 1_555 1_555
C9 C7 1_555 1_555
C10 C8 1_555 1_555
C11 C9 1_555 1_555
C12 C10 1_555 1_555
C13 C10 1_555 1_555
H5 C13 1_555 1_555
C14 C5 1_555 1_555
H6 C14 1_555 1_555
C15 C12 1_555 1_555
C16 C13 1_555 1_555
H7 C16 1_555 1_555
C17 C15 1_555 1_555
N1B C2 1_555 1_555
O1B C4B 1_555 1_555
C1B C1 1_555 1_555
C4B C1B 1_555 1_555
O2B C4B 1_555 1_555
C8B C6 1_555 1_555
H4B C8B 1_555 1_555
C10B C12 1_555 1_555
C13B C10B 1_555 1_555
H5B C13B 1_555 1_555
C16B C13B 1_555 1_555
H7B C16B 1_555 1_555
C17B C15 1_555 1_555
C3C N2 1_555 1_555
H1C C3C 1_555 1_555
C7C C9 1_555 1_555
H3C C7C 1_555 1_555
C14C C11 1_555 1_555
H6C C14C 1_555 1_555
C5C N3 1_555 1_555
H2C C5C 1_555 1_555
Mn1_2 N3 1_555 1_555
Mn1A N1B 1_555 1_555
N1C Mn1 1_555 1_555
O1C Mn1 1_555 1_555
N3_2 Mn1 1_555 1_555
C11 C14 1_555 1_555
C16 C17 1_555 1_555
N1B C1B 1_555 1_555
O1B Mn1A 1_555 1_555
C8B C10B 1_555 1_555
C16B C17B 1_555 1_555
C3C C7C 1_555 1_555
C14C C5C 1_555 1_555

#END
