
#######################################################################
#
#                 Cambridge Crystallographic Data Centre
#                                CCDC 
#
#######################################################################
#
# If this CIF has been generated from an entry in the Cambridge 
# Structural Database, then it will include bibliographic, chemical, 
# crystal, experimental, refinement or atomic coordinate data resulting 
# from the CCDC's data processing and validation procedures.
#
#######################################################################

data_ZOBZAT
_symmetry_cell_setting           orthorhombic
_symmetry_space_group_name_H-M   'P n a 21'
_symmetry_Int_Tables_number      33
_space_group_name_Hall           'P 2c -2n'
loop_
_symmetry_equiv_pos_site_id
_symmetry_equiv_pos_as_xyz
1 x,y,z
2 -x,-y,1/2+z
3 1/2-x,1/2+y,1/2+z
4 1/2+x,1/2-y,z
_cell_length_a                   19.4568(11)
_cell_length_b                   9.8183(3)
_cell_length_c                   24.4351(7)
_cell_angle_alpha                90
_cell_angle_beta                 90
_cell_angle_gamma                90
_cell_volume                     4667.9
loop_
_atom_site_label
_atom_site_type_symbol
_atom_site_fract_x
_atom_site_fract_y
_atom_site_fract_z
Mn1 Mn 0.57430(3) -0.10303(6) 0.88597(2)
Mn2 Mn 0.56753(3) 0.13727(6) 0.63182(2)
O1 O 0.62348(16) 0.0736(3) 0.92620(11)
O2 O 0.61818(15) 0.2026(3) 1.00135(11)
O3 O 0.54293(18) 0.2170(3) 1.08444(11)
H1 H 0.5653 0.2165 1.0560
O4 O 0.46688(16) 0.0847(3) 1.12605(11)
O5 O 0.46575(15) -0.0224(3) 0.87861(11)
O6 O 0.39956(16) 0.1152(3) 0.82987(12)
H2 H 0.4004 0.1523 0.7998
O7 O 0.47139(14) 0.2292(3) 0.66595(11)
O8 O 0.40253(16) 0.2244(3) 0.73866(12)
N1 N 0.54616(17) -0.1271(3) 0.97425(12)
N2 N 0.48137(17) -0.1196(3) 1.05101(12)
N3 N 0.5490(2) -0.3160(4) 0.85692(13)
N4 N 0.67415(18) -0.2171(3) 0.88382(13)
N5 N 0.57021(16) -0.0096(3) 0.80318(12)
N6 N 0.57347(16) 0.0929(3) 0.72039(12)
N7 N 0.67754(19) 0.1053(4) 0.60572(13)
N8 N 0.61613(18) 0.3455(3) 0.63169(14)
C1 C 0.6027(2) 0.0970(4) 0.97345(17)
C2 C 0.55608(19) -0.0044(4) 0.99933(15)
C3 C 0.5173(2) 0.0016(4) 1.04623(14)
C4 C 0.5071(2) 0.1051(4) 1.08793(16)
C5 C 0.5010(2) -0.1926(4) 1.00708(16)
C6 C 0.4773(2) -0.3329(4) 0.99575(14)
C7 C 0.5261(2) -0.4321(4) 0.98128(16)
H3 H 0.5722 -0.4084 0.9781
C8 C 0.5059(2) -0.5633(5) 0.97179(16)
H4 H 0.5387 -0.6282 0.9626
C9 C 0.4365(2) -0.6024(4) 0.97561(15)
C10 C 0.3865(2) -0.5028(4) 0.98962(14)
C11 C 0.4091(2) -0.3682(4) 0.99983(14)
H5 H 0.3771 -0.3022 1.0095
C12 C 0.3167(2) -0.5408(5) 0.99161(16)
H6 H 0.2836 -0.4757 0.9999
C13 C 0.2971(3) -0.6712(5) 0.98155(19)
H7 H 0.2508 -0.6944 0.9829
C14 C 0.3457(3) -0.7699(5) 0.9693(2)
H8 H 0.3317 -0.8593 0.9633
C15 C 0.4141(3) -0.7372(5) 0.96582(19)
H9 H 0.4460 -0.8042 0.9570
C16 C 0.4872(3) -0.3626(6) 0.84304(19)
H10 H 0.4503 -0.3023 0.8420
C17 C 0.4759(4) -0.4997(8) 0.8300(3)
H11 H 0.4322 -0.5301 0.8204
C18 C 0.5292(5) -0.5864(7) 0.8315(3)
H12 H 0.5220 -0.6776 0.8230
C19 C 0.5957(4) -0.5429(6) 0.8456(2)
C20 C 0.6026(3) -0.4039(5) 0.85817(17)
C21 C 0.6692(3) -0.3521(5) 0.87287(16)
C22 C 0.7265(3) -0.4392(6) 0.87341(18)
C23 C 0.7904(3) -0.3803(8) 0.8854(2)
H13 H 0.8297 -0.4342 0.8865
C24 C 0.7949(3) -0.2450(8) 0.8953(2)
H14 H 0.8372 -0.2053 0.9028
C25 C 0.7360(2) -0.1663(6) 0.89403(19)
H15 H 0.7400 -0.0733 0.9007
C26 C 0.6545(5) -0.6293(6) 0.8486(3)
H16 H 0.6498 -0.7219 0.8415
C27 C 0.7170(5) -0.5786(7) 0.8616(3)
H17 H 0.7546 -0.6369 0.8627
C28 C 0.4555(2) 0.0473(4) 0.83696(17)
C29 C 0.5087(2) 0.0530(4) 0.79421(15)
C30 C 0.5103(2) 0.1168(4) 0.74399(15)
C31 C 0.4585(2) 0.1956(4) 0.71350(17)
C32 C 0.6073(2) 0.0172(4) 0.75767(16)
C33 C 0.6782(2) -0.0293(4) 0.74840(14)
C34 C 0.7295(2) 0.0679(5) 0.73486(18)
H18 H 0.7180 0.1597 0.7328
C35 C 0.7961(3) 0.0282(7) 0.7247(2)
H19 H 0.8293 0.0929 0.7162
C36 C 0.8136(3) -0.1091(7) 0.72718(19)
C37 C 0.7640(3) -0.2087(6) 0.74056(16)
C38 C 0.6947(2) -0.1629(5) 0.75156(15)
H20 H 0.6611 -0.2260 0.7609
C39 C 0.7830(4) -0.3443(7) 0.7429(2)
H21 H 0.7512 -0.4104 0.7530
C40 C 0.8500(5) -0.3806(10) 0.7301(2)
H22 H 0.8624 -0.4720 0.7313
C41 C 0.8984(4) -0.2862(13) 0.7157(3)
H23 H 0.9427 -0.3146 0.7071
C42 C 0.8828(3) -0.1527(10) 0.7139(2)
H24 H 0.9161 -0.0891 0.7043
C43 C 0.7067(3) -0.0108(5) 0.5919(2)
H25 H 0.6795 -0.0886 0.5911
C44 C 0.7758(3) -0.0239(7) 0.5785(2)
H26 H 0.7940 -0.1077 0.5681
C45 C 0.8160(3) 0.0886(8) 0.5810(2)
H27 H 0.8627 0.0810 0.5737
C46 C 0.7884(3) 0.2153(6) 0.59417(19)
C47 C 0.7173(2) 0.2190(5) 0.60693(15)
C48 C 0.6850(2) 0.3459(5) 0.62067(15)
C49 C 0.7247(3) 0.4664(5) 0.62066(18)
C50 C 0.6898(4) 0.5870(5) 0.6314(2)
H28 H 0.7139 0.6688 0.6318
C51 C 0.6205(4) 0.5877(5) 0.6414(2)
H29 H 0.5972 0.6688 0.6480
C52 C 0.5857(3) 0.4631(5) 0.64149(19)
H30 H 0.5388 0.4631 0.6488
C53 C 0.8264(3) 0.3374(8) 0.5958(2)
H31 H 0.8732 0.3351 0.5883
C54 C 0.7963(3) 0.4577(7) 0.6080(2)
H32 H 0.8227 0.5366 0.6081
Mn2A Mn 0.43247(3) -0.13727(6) 1.13182(2)
O4A O 0.53312(16) -0.0847(3) 0.62605(11)
N2A N 0.51863(17) 0.1196(3) 0.55101(12)
loop_
_geom_bond_atom_site_label_1
_geom_bond_atom_site_label_2
_geom_bond_site_symmetry_1
_geom_bond_site_symmetry_2
Mn1 O1 1_555 1_555
Mn2 O7 1_555 1_555
O1 C1 1_555 1_555
O2 C1 1_555 1_555
O3 H1 1_555 1_555
O4 C4 1_555 1_555
O5 Mn1 1_555 1_555
O6 H2 1_555 1_555
O7 C31 1_555 1_555
O8 C31 1_555 1_555
N1 Mn1 1_555 1_555
N2 C3 1_555 1_555
N3 Mn1 1_555 1_555
N4 Mn1 1_555 1_555
N5 Mn1 1_555 1_555
N6 Mn2 1_555 1_555
N7 Mn2 1_555 1_555
N8 Mn2 1_555 1_555
C1 C2 1_555 1_555
C2 N1 1_555 1_555
C3 C2 1_555 1_555
C4 O3 1_555 1_555
C5 N1 1_555 1_555
C6 C5 1_555 1_555
C7 C6 1_555 1_555
H3 C7 1_555 1_555
C8 C7 1_555 1_555
H4 C8 1_555 1_555
C9 C8 1_555 1_555
C10 C9 1_555 1_555
C11 C6 1_555 1_555
H5 C11 1_555 1_555
C12 C10 1_555 1_555
H6 C12 1_555 1_555
C13 C12 1_555 1_555
H7 C13 1_555 1_555
C14 C13 1_555 1_555
H8 C14 1_555 1_555
C15 C9 1_555 1_555
H9 C15 1_555 1_555
C16 N3 1_555 1_555
H10 C16 1_555 1_555
C17 C16 1_555 1_555
H11 C17 1_555 1_555
C18 C17 1_555 1_555
H12 C18 1_555 1_555
C19 C18 1_555 1_555
C20 N3 1_555 1_555
C21 N4 1_555 1_555
C22 C21 1_555 1_555
C23 C22 1_555 1_555
H13 C23 1_555 1_555
C24 C23 1_555 1_555
H14 C24 1_555 1_555
C25 N4 1_555 1_555
H15 C25 1_555 1_555
C26 C19 1_555 1_555
H16 C26 1_555 1_555
C27 C22 1_555 1_555
H17 C27 1_555 1_555
C28 O5 1_555 1_555
C29 N5 1_555 1_555
C30 N6 1_555 1_555
C31 C30 1_555 1_555
C32 N5 1_555 1_555
C33 C32 1_555 1_555
C34 C33 1_555 1_555
H18 C34 1_555 1_555
C35 C34 1_555 1_555
H19 C35 1_555 1_555
C36 C35 1_555 1_555
C37 C36 1_555 1_555
C38 C33 1_555 1_555
H20 C38 1_555 1_555
C39 C37 1_555 1_555
H21 C39 1_555 1_555
C40 C39 1_555 1_555
H22 C40 1_555 1_555
C41 C40 1_555 1_555
H23 C41 1_555 1_555
C42 C36 1_555 1_555
H24 C42 1_555 1_555
C43 N7 1_555 1_555
H25 C43 1_555 1_555
C44 C43 1_555 1_555
H26 C44 1_555 1_555
C45 C44 1_555 1_555
H27 C45 1_555 1_555
C46 C45 1_555 1_555
C47 N7 1_555 1_555
C48 N8 1_555 1_555
C49 C48 1_555 1_555
C50 C49 1_555 1_555
H28 C50 1_555 1_555
C51 C50 1_555 1_555
H29 C51 1_555 1_555
C52 N8 1_555 1_555
H30 C52 1_555 1_555
C53 C46 1_555 1_555
H31 C53 1_555 1_555
C54 C49 1_555 1_555
H32 C54 1_555 1_555
Mn2A O4 1_555 1_555
O4A Mn2 1_555 1_555
N2A Mn2 1_555 1_555
O6 C28 1_555 1_555
N2 C5 1_555 1_555
N2 Mn2A 1_555 1_555
N6 C32 1_555 1_555
C3 C4 1_555 1_555
C10 C11 1_555 1_555
C14 C15 1_555 1_555
C19 C20 1_555 1_555
C20 C21 1_555 1_555
C24 C25 1_555 1_555
C26 C27 1_555 1_555
C28 C29 1_555 1_555
C29 C30 1_555 1_555
C37 C38 1_555 1_555
C41 C42 1_555 1_555
C46 C47 1_555 1_555
C47 C48 1_555 1_555
C51 C52 1_555 1_555
C53 C54 1_555 1_555

#END
