
#######################################################################
#
#                 Cambridge Crystallographic Data Centre
#                                CCDC 
#
#######################################################################
#
# If this CIF has been generated from an entry in the Cambridge 
# Structural Database, then it will include bibliographic, chemical, 
# crystal, experimental, refinement or atomic coordinate data resulting 
# from the CCDC's data processing and validation procedures.
#
#######################################################################

data_ZODPUF
_symmetry_cell_setting           rhombohedral
_symmetry_space_group_name_H-M   'R -3 c'
_symmetry_Int_Tables_number      167
_space_group_name_Hall           '-R 3 2"c'
loop_
_symmetry_equiv_pos_site_id
_symmetry_equiv_pos_as_xyz
1 x,y,z
2 -y,x-y,z
3 -x+y,-x,z
4 y,x,1/2-z
5 x-y,-y,1/2-z
6 -x,-x+y,1/2-z
7 2/3+x,1/3+y,1/3+z
8 2/3-y,1/3+x-y,1/3+z
9 2/3-x+y,1/3-x,1/3+z
10 2/3+y,1/3+x,5/6-z
11 2/3+x-y,1/3-y,5/6-z
12 2/3-x,1/3-x+y,5/6-z
13 1/3+x,2/3+y,2/3+z
14 1/3-y,2/3+x-y,2/3+z
15 1/3-x+y,2/3-x,2/3+z
16 1/3+y,2/3+x,1/6-z
17 1/3+x-y,2/3-y,1/6-z
18 1/3-x,2/3-x+y,1/6-z
19 -x,-y,-z
20 y,-x+y,-z
21 x-y,x,-z
22 -y,-x,1/2+z
23 -x+y,y,1/2+z
24 x,x-y,1/2+z
25 1/3-x,2/3-y,2/3-z
26 1/3+y,2/3-x+y,2/3-z
27 1/3+x-y,2/3+x,2/3-z
28 1/3-y,2/3-x,1/6+z
29 1/3-x+y,2/3+y,1/6+z
30 1/3+x,2/3+x-y,1/6+z
31 2/3-x,1/3-y,1/3-z
32 2/3+y,1/3-x+y,1/3-z
33 2/3+x-y,1/3+x,1/3-z
34 2/3-y,1/3-x,5/6+z
35 2/3-x+y,1/3+y,5/6+z
36 2/3+x,1/3+x-y,5/6+z
_cell_length_a                   19.887(3)
_cell_length_b                   19.887(3)
_cell_length_c                   83.536(17)
_cell_angle_alpha                90
_cell_angle_beta                 90
_cell_angle_gamma                120
_cell_volume                     28611.6
loop_
_atom_site_label
_atom_site_type_symbol
_atom_site_fract_x
_atom_site_fract_y
_atom_site_fract_z
O1 O 0.1033(4) 0.0905(7) -0.06191(9)
C1 C 0.1740(4) 0.1336(6) -0.06638(8)
Zn1 Zn 0.3333 0.6667 0.104133(18)
Zn2 Zn 0.43737(2) 0.69039(2) 0.073107(4)
O2 O 0.3333 0.6667 0.07981(4)
O3 O 0.42697(14) 0.60497(15) 0.05984(3)
O4 O 0.29961(21) 0.52144(15) 0.05834(3)
C2 C 0.47179(19) 0.30194(18) -0.01610(4)
H1 H 0.4874 0.2842 -0.0248
C3 C 0.59600(18) 0.33300(18) -0.00262(4)
C4 C 0.59550(18) 0.26223(18) -0.00252(4)
C5 C 0.36990(19) 0.54512(19) 0.05480(4)
C6 C 0.41272(18) 0.40662(18) 0.02154(4)
C7 C 0.42986(18) 0.36517(18) 0.00912(4)
C8 C 0.38437(19) 0.49484(19) 0.04377(4)
C9 C 0.39886(18) 0.29677(19) -0.01636(4)
C10 C 0.52083(18) 0.33277(18) -0.00312(4)
C11 C 0.49918(18) 0.36357(18) 0.00942(4)
H2 H 0.5317 0.3837 0.0183
C12 C 0.3667(2) 0.2578(2) -0.04529(4)
H3 H 0.4193 0.2848 -0.0478
C13 C 0.33840(19) 0.3803(2) 0.02749(4)
H4 H 0.2978 0.3328 0.0240
C14 C 0.3434(2) 0.2573(2) -0.02945(4)
C15 C 0.47256(19) 0.47785(19) 0.02729(4)
H5 H 0.5229 0.4964 0.0236
C16 C 0.37980(19) 0.33013(19) -0.00388(4)
H6 H 0.3326 0.3292 -0.0041
C17 C 0.3239(2) 0.4238(2) 0.03847(4)
H7 H 0.2738 0.4056 0.0423
O5 O 0.1935(2) 0.1408(3) -0.08012(5)
C18 C 0.45863(19) 0.5201(2) 0.03808(4)
H8 H 0.4996 0.5668 0.0417
C19 C 0.3130(3) 0.2189(2) -0.05727(5)
H9 H 0.3299 0.2208 -0.0677
C20 C 0.2359(3) 0.1780(3) -0.05393(6)
C21 C 0.2655(3) 0.2151(4) -0.02602(6)
H10 H 0.2485 0.2130 -0.0156
C22 C 0.2114(3) 0.1751(4) -0.03818(7)
H11 H 0.1588 0.1465 -0.0357
C23 C 0.5202(2) 0.1874(2) -0.00153(5)
H12 H 0.5290 0.1449 -0.0042
H13 H 0.4845 0.1879 -0.0094
C24 C 0.4829(3) 0.1733(3) 0.01529(7)
H14 H 0.4347 0.1249 0.0153
H15 H 0.4734 0.2148 0.0179
H16 H 0.5175 0.1713 0.0231
O3A O 0.39503(15) -0.17800(21) 0.05984(3)
C2A C 0.69806(18) 0.16985(26) -0.01610(4)
H1A H 0.7158 0.2032 -0.0248
C3A C 0.66700(18) 0.26300(25) -0.00262(4)
C4A C 0.73777(18) 0.33327(25) -0.00252(4)
C5A C 0.45488(19) -0.17522(27) 0.05480(4)
C6A C 0.59338(18) 0.00610(25) 0.02154(4)
C7A C 0.63483(18) 0.06469(25) 0.00912(4)
C8A C 0.50516(19) -0.11047(27) 0.04377(4)
C9A C 0.70323(19) 0.10209(26) -0.01636(4)
C10A C 0.66723(18) 0.18806(25) -0.00312(4)
C11A C 0.63643(18) 0.13561(25) 0.00942(4)
H2A H 0.6163 0.1480 0.0183
C12A C 0.7422(2) 0.1089(3) -0.04529(4)
H3A H 0.7152 0.1345 -0.0478
C13A C 0.6197(2) -0.04190(28) 0.02749(4)
H4A H 0.6672 -0.0350 0.0240
C14A C 0.7427(2) 0.0861(3) -0.02945(4)
C15A C 0.52215(19) -0.00529(27) 0.02729(4)
H5A H 0.5036 0.0265 0.0236
C16A C 0.66987(19) 0.04967(27) -0.00388(4)
H6A H 0.6708 0.0034 -0.0041
C17A C 0.5762(2) -0.0999(3) 0.03847(4)
H7A H 0.5944 -0.1318 0.0423
C18A C 0.4799(2) -0.06147(28) 0.03808(4)
H8A H 0.4332 -0.0672 0.0417
C19A C 0.7811(2) 0.0941(4) -0.05727(5)
H9A H 0.7792 0.1091 -0.0677
C20A C 0.8220(3) 0.0579(4) -0.05393(6)
C21A C 0.7849(4) 0.0504(5) -0.02602(6)
H10A H 0.7870 0.0355 -0.0156
C22A C 0.8249(4) 0.0363(5) -0.03818(7)
H11A H 0.8535 0.0123 -0.0357
C23A C 0.8126(2) 0.3328(3) -0.00153(5)
H12A H 0.8551 0.3841 -0.0042
H13A H 0.8121 0.2966 -0.0094
C24A C 0.8267(3) 0.3096(4) 0.01529(7)
H14A H 0.8751 0.3098 0.0153
H15A H 0.7852 0.2586 0.0179
H16A H 0.8287 0.3462 0.0231
O1A O 0.9095(7) 0.0128(8) -0.06191(9)
C1A C 0.8664(6) 0.0404(7) -0.06638(8)
O5A O 0.8592(3) 0.0527(4) -0.08012(5)
O4A O 0.47856(15) -0.22183(26) 0.05834(3)
O3B O 1.17800(21) 0.57303(14) 0.05984(3)
C2B C 0.83015(26) 0.52821(19) -0.01610(4)
H1B H 0.7968 0.5126 -0.0248
C3B C 0.73700(25) 0.40400(18) -0.00262(4)
C4B C 0.66673(25) 0.40450(18) -0.00252(4)
C5B C 1.17522(27) 0.63010(19) 0.05480(4)
C6B C 0.99390(25) 0.58728(18) 0.02154(4)
C7B C 0.93531(25) 0.57014(18) 0.00912(4)
C8B C 1.11047(27) 0.61563(19) 0.04377(4)
C9B C 0.89791(26) 0.60114(18) -0.01636(4)
C10B C 0.81194(25) 0.47917(18) -0.00312(4)
C11B C 0.86439(25) 0.50082(18) 0.00942(4)
H2B H 0.8520 0.4683 0.0183
C12B C 0.8911(3) 0.6333(2) -0.04529(4)
H3B H 0.8655 0.5807 -0.0478
C13B C 1.04190(28) 0.66160(19) 0.02749(4)
H4B H 1.0350 0.7022 0.0240
C14B C 0.9139(3) 0.6566(2) -0.02945(4)
C15B C 1.00529(27) 0.52744(19) 0.02729(4)
H5B H 0.9735 0.4771 0.0236
C16B C 0.95033(27) 0.62020(19) -0.00388(4)
H6B H 0.9966 0.6674 -0.0041
C17B C 1.0999(3) 0.6761(2) 0.03847(4)
H7B H 1.1318 0.7262 0.0423
C18B C 1.06147(28) 0.54137(19) 0.03808(4)
H8B H 1.0672 0.5004 0.0417
C19B C 0.9059(4) 0.6870(3) -0.05727(5)
H9B H 0.8909 0.6701 -0.0677
C20B C 0.9421(4) 0.7641(3) -0.05393(6)
C21B C 0.9496(5) 0.7345(3) -0.02602(6)
H10B H 0.9645 0.7515 -0.0156
C22B C 0.9637(5) 0.7886(3) -0.03818(7)
H11B H 0.9877 0.8412 -0.0357
C23B C 0.6672(3) 0.4798(2) -0.00153(5)
H12B H 0.6159 0.4710 -0.0042
H13B H 0.7034 0.5155 -0.0094
C24B C 0.6904(4) 0.5171(3) 0.01529(7)
H14B H 0.6902 0.5653 0.0153
H15B H 0.7414 0.5266 0.0179
H16B H 0.6538 0.4825 0.0231
O1B O 0.9872(8) 0.8967(4) -0.06191(9)
C1B C 0.9596(7) 0.8260(4) -0.06638(8)
O5B O 0.9473(4) 0.8065(2) -0.08012(5)
O4B O 1.22183(26) 0.70039(21) 0.05834(3)
Zn2A Zn 0.30961(2) -0.25302(3) 0.073107(4)
Zn2B Zn 0.25302(3) 0.56263(2) 0.073107(4)
O1AA O 0.2428(7) 0.5634(4) 0.10476(9)
O1BA O 0.3205(8) 0.7572(7) 0.10476(9)
O1CA O 0.4366(4) 0.6795(8) 0.10476(9)
Zn1GA Zn -0.0000 0.0000 -0.062534(18)
Zn1GA_2 Zn 1.0000 0.0000 -0.062534(18)
Zn1GA_3 Zn 1.0000 1.0000 -0.062534(18)
Zn2_2 Zn 0.43737(2) -0.30961(2) 0.073107(4)
Zn2A_2 Zn 0.30961(2) 0.74698(3) 0.073107(4)
Zn2A_3 Zn 1.30961(2) 0.74698(3) 0.073107(4)
Zn2B_2 Zn 1.25302(3) 0.56263(2) 0.073107(4)
Zn2GA Zn 0.97628(2) 0.89596(2) -0.093560(4)
Zn2HA Zn 0.91969(3) 0.02372(2) -0.093560(4)
Zn2IA Zn 0.10404(2) 0.08031(3) -0.093560(4)
O2_2 O 0.3333 -0.3333 0.07981(4)
O3B_2 O 0.17800(21) 0.57303(14) 0.05984(3)
O4A_2 O 0.47856(15) 0.77817(26) 0.05834(3)
O4B_2 O 0.22183(26) -0.29961(21) 0.05834(3)
O5AA O 0.1925(3) 0.4732(2) 0.08655(5)
O5BA O 0.2806(4) -0.1925(3) 0.08655(5)
O5CA O 0.5268(2) 0.7194(4) 0.08655(5)
loop_
_geom_bond_atom_site_label_1
_geom_bond_atom_site_label_2
_geom_bond_site_symmetry_1
_geom_bond_site_symmetry_2
O1 C1 1_555 1_555
C1 O5 1_555 1_555
Zn1 O2 1_555 1_555
Zn2 O2 1_555 1_555
O2 Zn2B 1_555 1_555
O3 Zn2 1_555 1_555
O4 C5 1_555 1_555
C2 H1 1_555 1_555
C3 C4 1_555 1_555
C4 C23 1_555 1_555
C5 O3 1_555 1_555
C6 C7 1_555 1_555
C7 C11 1_555 1_555
C8 C5 1_555 1_555
C9 C2 1_555 1_555
C10 C2 1_555 1_555
C11 C10 1_555 1_555
H2 C11 1_555 1_555
C12 H3 1_555 1_555
C13 C6 1_555 1_555
H4 C13 1_555 1_555
C14 C9 1_555 1_555
C15 C6 1_555 1_555
H5 C15 1_555 1_555
C16 C7 1_555 1_555
H6 C16 1_555 1_555
C17 C8 1_555 1_555
H7 C17 1_555 1_555
O5 Zn2IA 1_555 1_555
C18 C8 1_555 1_555
H8 C18 1_555 1_555
C19 C12 1_555 1_555
H9 C19 1_555 1_555
C20 C1 1_555 1_555
C21 C14 1_555 1_555
H10 C21 1_555 1_555
C22 C20 1_555 1_555
H11 C22 1_555 1_555
C23 H12 1_555 1_555
H13 C23 1_555 1_555
C24 C23 1_555 1_555
H14 C24 1_555 1_555
H15 C24 1_555 1_555
H16 C24 1_555 1_555
O3A C5A 1_555 1_555
C2A H1A 1_555 1_555
C3A C4 1_555 1_555
C4A C3A 1_555 1_555
C5A C8A 1_555 1_555
C6A C7A 1_555 1_555
C7A C11A 1_555 1_555
C8A C17A 1_555 1_555
C9A C2A 1_555 1_555
C10A C2A 1_555 1_555
C11A C10A 1_555 1_555
H2A C11A 1_555 1_555
C12A H3A 1_555 1_555
C13A C6A 1_555 1_555
H4A C13A 1_555 1_555
C14A C9A 1_555 1_555
C15A C6A 1_555 1_555
H5A C15A 1_555 1_555
C16A C7A 1_555 1_555
H6A C16A 1_555 1_555
C17A C13A 1_555 1_555
H7A C17A 1_555 1_555
C18A C8A 1_555 1_555
H8A C18A 1_555 1_555
C19A C12A 1_555 1_555
H9A C19A 1_555 1_555
C20A C19A 1_555 1_555
C21A C14A 1_555 1_555
H10A C21A 1_555 1_555
C22A C20A 1_555 1_555
H11A C22A 1_555 1_555
C23A C4A 1_555 1_555
H12A C23A 1_555 1_555
H13A C23A 1_555 1_555
C24A C23A 1_555 1_555
H14A C24A 1_555 1_555
H15A C24A 1_555 1_555
H16A C24A 1_555 1_555
O1A C1A 1_555 1_555
C1A C20A 1_555 1_555
O5A C1A 1_555 1_555
O4A C5A 1_555 1_555
O3B C5B 1_555 1_555
C2B H1B 1_555 1_555
C3B C4A 1_555 1_555
C4B C3 1_555 1_555
C5B C8B 1_555 1_555
C6B C7B 1_555 1_555
C7B C11B 1_555 1_555
C8B C17B 1_555 1_555
C9B C2B 1_555 1_555
C10B C2B 1_555 1_555
C11B C10B 1_555 1_555
H2B C11B 1_555 1_555
C12B H3B 1_555 1_555
C13B C6B 1_555 1_555
H4B C13B 1_555 1_555
C14B C9B 1_555 1_555
C15B C6B 1_555 1_555
H5B C15B 1_555 1_555
C16B C7B 1_555 1_555
H6B C16B 1_555 1_555
C17B C13B 1_555 1_555
H7B C17B 1_555 1_555
C18B C8B 1_555 1_555
H8B C18B 1_555 1_555
C19B C12B 1_555 1_555
H9B C19B 1_555 1_555
C20B C19B 1_555 1_555
C21B C14B 1_555 1_555
H10B C21B 1_555 1_555
C22B C20B 1_555 1_555
H11B C22B 1_555 1_555
C23B C4B 1_555 1_555
H12B C23B 1_555 1_555
H13B C23B 1_555 1_555
C24B C23B 1_555 1_555
H14B C24B 1_555 1_555
H15B C24B 1_555 1_555
H16B C24B 1_555 1_555
O1B C1B 1_555 1_555
C1B C20B 1_555 1_555
O5B C1B 1_555 1_555
O4B C5B 1_555 1_555
Zn2A O3A 1_555 1_555
Zn2B O4 1_555 1_555
O1AA Zn1 1_555 1_555
O1BA Zn1 1_555 1_555
O1CA Zn1 1_555 1_555
Zn1GA O1 1_555 1_555
Zn1GA_2 O1A 1_555 1_555
Zn1GA_3 O1B 1_555 1_555
Zn2_2 O4A 1_555 1_555
Zn2A_2 O2 1_555 1_555
Zn2A_3 O4B 1_555 1_555
Zn2B_2 O3B 1_555 1_555
Zn2GA O5B 1_555 1_555
Zn2HA O5A 1_555 1_555
O2_2 Zn2A 1_555 1_555
O3B_2 Zn2B 1_555 1_555
O4A_2 Zn2 1_555 1_555
O4B_2 Zn2A 1_555 1_555
O5AA Zn2B 1_555 1_555
O5BA Zn2A 1_555 1_555
O5CA Zn2 1_555 1_555
C3 C10 1_555 1_555
C9 C16 1_555 1_555
C12 C14 1_555 1_555
C13 C17 1_555 1_555
C15 C18 1_555 1_555
C19 C20 1_555 1_555
C21 C22 1_555 1_555
C3A C10A 1_555 1_555
C9A C16A 1_555 1_555
C12A C14A 1_555 1_555
C15A C18A 1_555 1_555
C21A C22A 1_555 1_555
C3B C4B 1_555 1_555
C3B C10B 1_555 1_555
C9B C16B 1_555 1_555
C12B C14B 1_555 1_555
C15B C18B 1_555 1_555
C21B C22B 1_555 1_555
Zn2_2 O2_2 1_555 1_555

#END
