
#######################################################################
#
#                 Cambridge Crystallographic Data Centre
#                                CCDC 
#
#######################################################################
#
# If this CIF has been generated from an entry in the Cambridge 
# Structural Database, then it will include bibliographic, chemical, 
# crystal, experimental, refinement or atomic coordinate data resulting 
# from the CCDC's data processing and validation procedures.
#
#######################################################################

data_ZODSOC
_symmetry_cell_setting           orthorhombic
_symmetry_space_group_name_H-M   'P b c a'
_symmetry_Int_Tables_number      61
_space_group_name_Hall           '-P 2ac 2ab'
loop_
_symmetry_equiv_pos_site_id
_symmetry_equiv_pos_as_xyz
1 x,y,z
2 1/2-x,-y,1/2+z
3 -x,1/2+y,1/2-z
4 1/2+x,1/2-y,-z
5 -x,-y,-z
6 1/2+x,y,1/2-z
7 x,1/2-y,1/2+z
8 1/2-x,1/2+y,z
_cell_length_a                   11.4651(9)
_cell_length_b                   12.8858(10)
_cell_length_c                   18.1910(11)
_cell_angle_alpha                90
_cell_angle_beta                 90
_cell_angle_gamma                90
_cell_volume                     2687.48
loop_
_atom_site_label
_atom_site_type_symbol
_atom_site_fract_x
_atom_site_fract_y
_atom_site_fract_z
Cd1 Cd 0.0000 1.0000 0.0000
S1 S 0.15159(9) 1.08820(7) 0.08731(5)
S2 S 0.11052(10) 0.86073(7) 0.08573(5)
N1 N 0.2798(3) 0.9526(2) 0.16186(13)
C1 C 0.1892(3) 0.9657(3) 0.11619(16)
C2 C 0.3282(3) 0.8509(3) 0.18110(18)
H1 H 0.2779 0.7969 0.1618
H2 H 0.3302 0.8439 0.2342
C3 C 0.4488(4) 0.8370(3) 0.15106(18)
C4 C 0.5510(4) 0.8190(3) 0.1887(2)
H3 H 0.5557 0.8135 0.2396
C5 C 0.6471(4) 0.8099(3) 0.1415(3)
H4 H 0.7226 0.7974 0.1579
C6 C 0.6191(4) 0.8212(3) 0.0702(3)
H5 H 0.6728 0.8181 0.0319
S3 S 0.47502(12) 0.84164(11) 0.05847(6)
C7 C 0.3400(3) 1.0404(3) 0.19721(17)
H6 H 0.3235 1.1037 0.1703
H7 H 0.4236 1.0288 0.1959
C8 C 0.3007(3) 1.0523(3) 0.27585(17)
C9 C 0.3750(4) 1.0271(3) 0.33297(18)
H8 H 0.4496 1.0046 0.3208
N2 N 0.3478(3) 1.0325(3) 0.40418(15)
C10 C 0.2409(4) 1.0649(3) 0.4198(2)
H9 H 0.2196 1.0695 0.4690
C11 C 0.1593(4) 1.0923(3) 0.36751(19)
H10 H 0.0854 1.1144 0.3816
C12 C 0.1886(4) 1.0865(3) 0.29392(19)
H11 H 0.1353 1.1047 0.2576
S1D S -0.15159(9) 0.91180(7) -0.08731(5)
S2D S -0.11052(10) 1.13927(7) -0.08573(5)
N1D N -0.2798(3) 1.0474(2) -0.16186(13)
C1D C -0.1892(3) 1.0343(3) -0.11619(16)
C2D C -0.3282(3) 1.1491(3) -0.18110(18)
H1D H -0.2779 1.2031 -0.1618
H2D H -0.3302 1.1561 -0.2342
C3D C -0.4488(4) 1.1630(3) -0.15106(18)
C4D C -0.5510(4) 1.1810(3) -0.1887(2)
H3D H -0.5557 1.1865 -0.2396
C5D C -0.6471(4) 1.1901(3) -0.1415(3)
H4D H -0.7226 1.2026 -0.1579
C6D C -0.6191(4) 1.1788(3) -0.0702(3)
H5D H -0.6728 1.1819 -0.0319
S3D S -0.47502(12) 1.15836(11) -0.05847(6)
C7D C -0.3400(3) 0.9596(3) -0.19721(17)
H6D H -0.3235 0.8963 -0.1703
H7D H -0.4236 0.9712 -0.1959
C8D C -0.3007(3) 0.9477(3) -0.27585(17)
C9D C -0.3750(4) 0.9729(3) -0.33297(18)
H8D H -0.4496 0.9954 -0.3208
N2D N -0.3478(3) 0.9675(3) -0.40418(15)
C10D C -0.2409(4) 0.9351(3) -0.4198(2)
H9D H -0.2196 0.9305 -0.4690
C11D C -0.1593(4) 0.9077(3) -0.36751(19)
H10D H -0.0854 0.8856 -0.3816
C12D C -0.1886(4) 0.9135(3) -0.29392(19)
H11D H -0.1353 0.8953 -0.2576
Cd1A Cd -0.5000 1.0000 -0.5000
Cd1A_2 Cd 0.5000 1.0000 0.5000
N2A N 0.1522(3) 0.9675(3) -0.09582(15)
N2E N -0.1522(3) 1.0325(3) 0.09582(15)
loop_
_geom_bond_atom_site_label_1
_geom_bond_atom_site_label_2
_geom_bond_site_symmetry_1
_geom_bond_site_symmetry_2
Cd1 S1 1_555 1_555
S1 C1 1_555 1_555
S2 Cd1 1_555 1_555
N1 C1 1_555 1_555
C1 S2 1_555 1_555
C2 N1 1_555 1_555
H1 C2 1_555 1_555
H2 C2 1_555 1_555
C3 C2 1_555 1_555
C4 C3 1_555 1_555
H3 C4 1_555 1_555
C5 C4 1_555 1_555
H4 C5 1_555 1_555
C6 C5 1_555 1_555
H5 C6 1_555 1_555
S3 C3 1_555 1_555
C7 N1 1_555 1_555
H6 C7 1_555 1_555
H7 C7 1_555 1_555
C8 C7 1_555 1_555
C9 C8 1_555 1_555
H8 C9 1_555 1_555
N2 C9 1_555 1_555
C10 N2 1_555 1_555
H9 C10 1_555 1_555
C11 C10 1_555 1_555
H10 C11 1_555 1_555
C12 C8 1_555 1_555
H11 C12 1_555 1_555
S1D Cd1 1_555 1_555
S2D Cd1 1_555 1_555
N1D C1D 1_555 1_555
C1D S1D 1_555 1_555
C2D N1D 1_555 1_555
H1D C2D 1_555 1_555
H2D C2D 1_555 1_555
C3D C2D 1_555 1_555
C4D C3D 1_555 1_555
H3D C4D 1_555 1_555
C5D C4D 1_555 1_555
H4D C5D 1_555 1_555
C6D C5D 1_555 1_555
H5D C6D 1_555 1_555
S3D C3D 1_555 1_555
C7D N1D 1_555 1_555
H6D C7D 1_555 1_555
H7D C7D 1_555 1_555
C8D C7D 1_555 1_555
C9D C8D 1_555 1_555
H8D C9D 1_555 1_555
N2D C9D 1_555 1_555
C10D N2D 1_555 1_555
H9D C10D 1_555 1_555
C11D C10D 1_555 1_555
H10D C11D 1_555 1_555
C12D C8D 1_555 1_555
H11D C12D 1_555 1_555
Cd1A N2D 1_555 1_555
Cd1A_2 N2 1_555 1_555
N2A Cd1 1_555 1_555
N2E Cd1 1_555 1_555
C6 S3 1_555 1_555
C11 C12 1_555 1_555
S2D C1D 1_555 1_555
C6D S3D 1_555 1_555
C11D C12D 1_555 1_555

#END
