
#######################################################################
#
#                 Cambridge Crystallographic Data Centre
#                                CCDC 
#
#######################################################################
#
# If this CIF has been generated from an entry in the Cambridge 
# Structural Database, then it will include bibliographic, chemical, 
# crystal, experimental, refinement or atomic coordinate data resulting 
# from the CCDC's data processing and validation procedures.
#
#######################################################################

data_ZOFSEU
_symmetry_cell_setting           monoclinic
_symmetry_space_group_name_H-M   'P 21/c'
_symmetry_Int_Tables_number      14
_space_group_name_Hall           '-P 2ybc'
loop_
_symmetry_equiv_pos_site_id
_symmetry_equiv_pos_as_xyz
1 x,y,z
2 -x,1/2+y,1/2-z
3 -x,-y,-z
4 x,1/2-y,1/2+z
_cell_length_a                   21.4590(2)
_cell_length_b                   9.9280(1)
_cell_length_c                   14.6280(2)
_cell_angle_alpha                90
_cell_angle_beta                 95.005(1)
_cell_angle_gamma                90
_cell_volume                     3104.54
loop_
_atom_site_label
_atom_site_type_symbol
_atom_site_fract_x
_atom_site_fract_y
_atom_site_fract_z
Cd1 Cd 0.579813(7) 0.000981(14) 0.162257(12)
N1 N 0.52380(9) 0.2071(2) 0.14894(15)
C1 C 0.50863(11) 0.2837(3) 0.21865(18)
H1 H 0.5259 0.2608 0.2771
C2 C 0.44757(10) 0.4258(2) 0.12692(17)
N2 N 0.47047(9) 0.3908(2) 0.21136(15)
C3 C 0.46319(11) 0.3558(2) 0.04983(17)
H2 H 0.4487 0.3833 -0.0090
C4 C 0.50119(10) 0.2435(2) 0.06382(17)
C5 C 0.51751(11) 0.1527(2) -0.01485(17)
O1 O 0.55983(8) 0.06859(17) 0.00366(13)
O2 O 0.48589(8) 0.17098(17) -0.08977(12)
C6 C 0.40009(11) 0.5425(2) 0.11829(18)
O3 O 0.38603(8) 0.59120(17) 0.19330(13)
O4 O 0.38001(10) 0.5739(2) 0.03993(14)
N3 N 0.67873(9) 0.0870(2) 0.12912(15)
C7 C 0.68998(12) 0.2128(3) 0.10542(19)
H3 H 0.6568 0.2734 0.0995
C8 C 0.75002(13) 0.2586(3) 0.0888(2)
H4 H 0.7562 0.3478 0.0725
C9 C 0.79913(12) 0.1708(3) 0.0969(2)
H5 H 0.8393 0.2001 0.0877
C10 C 0.78839(12) 0.0353(3) 0.11932(19)
C11 C 0.72671(12) -0.0020(2) 0.13489(19)
C12 C 0.71308(11) -0.1414(2) 0.15331(17)
N4 N 0.65291(9) -0.1762(2) 0.16507(15)
C13 C 0.63969(12) -0.3055(3) 0.17558(19)
H6 H 0.5987 -0.3293 0.1841
C14 C 0.68463(13) -0.4078(3) 0.1744(2)
H7 H 0.6733 -0.4976 0.1807
C15 C 0.74543(13) -0.3736(3) 0.16386(19)
H8 H 0.7760 -0.4400 0.1639
C16 C 0.76131(12) -0.2383(3) 0.15306(19)
C17 C 0.82324(13) -0.1956(3) 0.1377(2)
H9 H 0.8551 -0.2592 0.1387
C18 C 0.83659(12) -0.0650(3) 0.1217(2)
H10 H 0.8773 -0.0401 0.1123
Cd1A Cd 0.420187(7) 0.500981(14) 0.337743(12)
Cd1B Cd 0.420187(7) -0.000981(14) -0.162257(12)
N2A N 0.52953(9) -0.1092(2) 0.28864(15)
O2B O 0.51411(8) -0.17098(17) 0.08977(12)
O3A O 0.61397(8) 0.09120(17) 0.30670(13)
Cd2 Cd 0.920071(7) -0.015631(16) -0.164427(12)
N5 N 0.97579(9) 0.1904(2) -0.15200(15)
C19 C 0.99377(12) 0.2640(3) -0.22161(19)
H11 H 0.9803 0.2360 -0.2807
N6 N 1.02956(9) 0.3748(2) -0.21323(15)
C20 C 1.04596(10) 0.4187(2) -0.12783(18)
C21 C 1.02687(11) 0.3518(2) -0.05209(18)
H12 H 1.0366 0.3849 0.0069
C22 C 0.99271(11) 0.2334(2) -0.06699(18)
C23 C 0.97504(11) 0.1448(2) 0.01202(18)
O5 O 0.93461(8) 0.05629(17) -0.00823(13)
O6 O 1.00357(8) 0.16765(18) 0.08878(13)
C24 C 1.08998(11) 0.5411(2) -0.11779(19)
O7 O 1.11302(8) 0.57594(19) -0.19000(13)
O8 O 1.09855(9) 0.59042(19) -0.04014(14)
N7 N 0.85222(9) -0.1973(2) -0.13803(16)
C25 C 0.86766(12) -0.3266(3) -0.1366(2)
H13 H 0.9072 -0.3501 -0.1529
C26 C 0.82769(13) -0.4303(3) -0.1117(2)
H14 H 0.8408 -0.5196 -0.1109
C27 C 0.76934(13) -0.3969(3) -0.0890(2)
H15 H 0.7422 -0.4633 -0.0717
C28 C 0.75055(12) -0.2612(3) -0.09195(19)
C29 C 0.79395(11) -0.1639(3) -0.11648(18)
C30 C 0.77551(11) -0.0242(3) -0.12362(18)
N8 N 0.81755(9) 0.0659(2) -0.14919(15)
C31 C 0.79919(12) 0.1921(3) -0.1651(2)
H16 H 0.8279 0.2537 -0.1844
C32 C 0.73810(13) 0.2361(3) -0.1539(2)
H17 H 0.7265 0.3247 -0.1670
C33 C 0.69585(12) 0.1466(3) -0.1233(2)
H18 H 0.6558 0.1751 -0.1128
C34 C 0.71336(12) 0.0118(3) -0.1081(2)
C35 C 0.67116(12) -0.0893(3) -0.08020(19)
H19 H 0.6309 -0.0651 -0.0677
C36 C 0.68923(12) -0.2191(3) -0.0719(2)
H20 H 0.6613 -0.2827 -0.0527
Cd2A Cd 1.079929(7) 0.484369(16) -0.335573(12)
Cd2B Cd 1.079929(7) 0.015631(16) 0.164427(12)
N6A N 0.97044(9) -0.1252(2) -0.28677(15)
O6B O 0.99643(8) -0.16765(18) -0.08878(13)
O7A O 0.88698(8) 0.07594(19) -0.31000(13)
loop_
_geom_bond_atom_site_label_1
_geom_bond_atom_site_label_2
_geom_bond_site_symmetry_1
_geom_bond_site_symmetry_2
Cd1 N1 1_555 1_555
N1 C1 1_555 1_555
C1 H1 1_555 1_555
C2 N2 1_555 1_555
N2 C1 1_555 1_555
C3 C2 1_555 1_555
H2 C3 1_555 1_555
C4 N1 1_555 1_555
C5 C4 1_555 1_555
O1 Cd1 1_555 1_555
O2 C5 1_555 1_555
C6 C2 1_555 1_555
O3 C6 1_555 1_555
O4 C6 1_555 1_555
N3 Cd1 1_555 1_555
C7 N3 1_555 1_555
H3 C7 1_555 1_555
C8 C7 1_555 1_555
H4 C8 1_555 1_555
C9 C8 1_555 1_555
H5 C9 1_555 1_555
C10 C9 1_555 1_555
C11 N3 1_555 1_555
C12 C11 1_555 1_555
N4 Cd1 1_555 1_555
C13 N4 1_555 1_555
H6 C13 1_555 1_555
C14 C13 1_555 1_555
H7 C14 1_555 1_555
C15 C14 1_555 1_555
H8 C15 1_555 1_555
C16 C12 1_555 1_555
C17 C16 1_555 1_555
H9 C17 1_555 1_555
C18 C10 1_555 1_555
H10 C18 1_555 1_555
Cd2 N5 1_555 1_555
N5 C19 1_555 1_555
C19 H11 1_555 1_555
N6 C19 1_555 1_555
C20 N6 1_555 1_555
C21 C20 1_555 1_555
H12 C21 1_555 1_555
C22 N5 1_555 1_555
C23 C22 1_555 1_555
O5 Cd2 1_555 1_555
O6 C23 1_555 1_555
C24 C20 1_555 1_555
O7 C24 1_555 1_555
O8 C24 1_555 1_555
N7 Cd2 1_555 1_555
C25 N7 1_555 1_555
H13 C25 1_555 1_555
C26 C25 1_555 1_555
H14 C26 1_555 1_555
C27 C26 1_555 1_555
H15 C27 1_555 1_555
C28 C27 1_555 1_555
C29 N7 1_555 1_555
C30 C29 1_555 1_555
N8 Cd2 1_555 1_555
C31 N8 1_555 1_555
H16 C31 1_555 1_555
C32 C31 1_555 1_555
H17 C32 1_555 1_555
C33 C32 1_555 1_555
H18 C33 1_555 1_555
C34 C30 1_555 1_555
C35 C34 1_555 1_555
H19 C35 1_555 1_555
C36 C28 1_555 1_555
H20 C36 1_555 1_555
Cd1A N2 1_555 1_555
Cd1B O2 1_555 1_555
N2A Cd1 1_555 1_555
O2B Cd1 1_555 1_555
O3A Cd1 1_555 1_555
Cd2A N6 1_555 1_555
Cd2B O6 1_555 1_555
N6A Cd2 1_555 1_555
O6B Cd2 1_555 1_555
O7A Cd2 1_555 1_555
C3 C4 1_555 1_555
C5 O1 1_555 1_555
O3 Cd1A 1_555 1_555
C10 C11 1_555 1_555
C12 N4 1_555 1_555
C15 C16 1_555 1_555
C17 C18 1_555 1_555
C21 C22 1_555 1_555
C23 O5 1_555 1_555
O7 Cd2A 1_555 1_555
C28 C29 1_555 1_555
C30 N8 1_555 1_555
C33 C34 1_555 1_555
C35 C36 1_555 1_555

#END
