
#######################################################################
#
#                 Cambridge Crystallographic Data Centre
#                                CCDC 
#
#######################################################################
#
# If this CIF has been generated from an entry in the Cambridge 
# Structural Database, then it will include bibliographic, chemical, 
# crystal, experimental, refinement or atomic coordinate data resulting 
# from the CCDC's data processing and validation procedures.
#
#######################################################################

data_ZOFTEV
_symmetry_cell_setting           monoclinic
_symmetry_space_group_name_H-M   'P 21/c'
_symmetry_Int_Tables_number      14
_space_group_name_Hall           '-P 2ybc'
loop_
_symmetry_equiv_pos_site_id
_symmetry_equiv_pos_as_xyz
1 x,y,z
2 -x,1/2+y,1/2-z
3 -x,-y,-z
4 x,1/2-y,1/2+z
_cell_length_a                   10.7897(5)
_cell_length_b                   12.9776(7)
_cell_length_c                   12.7678(6)
_cell_angle_alpha                90
_cell_angle_beta                 106.435(6)
_cell_angle_gamma                90
_cell_volume                     1714.76
loop_
_atom_site_label
_atom_site_type_symbol
_atom_site_fract_x
_atom_site_fract_y
_atom_site_fract_z
Zn1 Zn 0.071785(19) 0.256886(12) 0.188918(13)
N1 N 0.02647(13) 0.19668(9) 0.33304(10)
C1 C 0.07771(16) 0.22223(11) 0.43787(11)
H1 H 0.1475 0.2674 0.4547
N2 N 0.03525(13) 0.18716(9) 0.52036(10)
C2 C -0.06466(15) 0.12089(10) 0.49619(12)
C3 C -0.12366(16) 0.09085(11) 0.38932(12)
H2 H -0.1932 0.0454 0.3726
C4 C -0.07487(16) 0.13126(10) 0.30845(12)
C5 C -0.13233(17) 0.10533(11) 0.18689(12)
O1 O -0.08363(14) 0.15323(10) 0.12238(9)
O2 O -0.22165(14) 0.04166(10) 0.16310(10)
C6 C -0.10917(16) 0.08027(11) 0.59328(13)
O3 O -0.05063(13) 0.11739(9) 0.68558(9)
O4 O -0.19478(15) 0.01432(11) 0.57262(11)
O5 O 0.23231(13) 0.34061(9) 0.27554(11)
O6 O 0.20287(14) 0.15093(9) 0.16212(11)
C7 C 0.19454(19) 0.05506(13) 0.16756(14)
H3 H 0.129(2) 0.0238(16) 0.1872(19)
N3 N 0.27715(16) -0.00967(11) 0.14354(12)
C8 C 0.2569(2) -0.12125(14) 0.14501(18)
H4 H 0.1910 -0.1358 0.1800
H5 H 0.3360 -0.1542 0.1846
H6 H 0.2306 -0.1469 0.0715
C9 C 0.3846(2) 0.02766(18) 0.1067(2)
H7 H 0.3908 0.1012 0.1149
H8 H 0.3708 0.0099 0.0313
H9 H 0.4634 -0.0035 0.1496
H10 H 0.2939 0.3341 0.2507
H11 H 0.2203 0.3958 0.2874
Zn1C Zn 0.071785(19) 0.243114(12) 0.688918(13)
N2C N 0.03525(13) 0.31284(9) 0.02036(10)
O3C O -0.05063(13) 0.38261(9) 0.18558(9)
O7 O 0.43094(17) 0.17142(15) 0.68554(15)
C10 C 0.4140(2) 0.14514(18) 0.5903(2)
H12 H 0.353(3) 0.093(2) 0.562(2)
N4 N 0.48624(18) 0.17419(14) 0.52619(15)
C11 C 0.4633(4) 0.1351(3) 0.4152(2)
H13 H 0.5378 0.0975 0.4096
H14 H 0.4476 0.1918 0.3648
H15 H 0.3895 0.0903 0.3981
C12 C 0.5936(3) 0.2451(2) 0.5676(3)
H16 H 0.5923 0.2702 0.6380
H17 H 0.5857 0.3021 0.5181
H18 H 0.6737 0.2099 0.5740
loop_
_geom_bond_atom_site_label_1
_geom_bond_atom_site_label_2
_geom_bond_site_symmetry_1
_geom_bond_site_symmetry_2
Zn1 N1 1_555 1_555
N1 C1 1_555 1_555
C1 H1 1_555 1_555
N2 C1 1_555 1_555
C2 N2 1_555 1_555
C3 C2 1_555 1_555
H2 C3 1_555 1_555
C4 N1 1_555 1_555
C5 C4 1_555 1_555
O1 Zn1 1_555 1_555
O2 C5 1_555 1_555
C6 C2 1_555 1_555
O3 C6 1_555 1_555
O4 C6 1_555 1_555
O5 Zn1 1_555 1_555
O6 Zn1 1_555 1_555
C7 O6 1_555 1_555
H3 C7 1_555 1_555
N3 C7 1_555 1_555
C8 N3 1_555 1_555
H4 C8 1_555 1_555
H5 C8 1_555 1_555
H6 C8 1_555 1_555
C9 N3 1_555 1_555
H7 C9 1_555 1_555
H8 C9 1_555 1_555
H9 C9 1_555 1_555
H10 O5 1_555 1_555
H11 O5 1_555 1_555
O7 C10 1_555 1_555
C10 H12 1_555 1_555
N4 C10 1_555 1_555
C11 N4 1_555 1_555
H13 C11 1_555 1_555
H14 C11 1_555 1_555
H15 C11 1_555 1_555
C12 N4 1_555 1_555
H16 C12 1_555 1_555
H17 C12 1_555 1_555
H18 C12 1_555 1_555
Zn1C N2 1_555 1_555
N2C Zn1 1_555 1_555
O3C Zn1 1_555 1_555
C3 C4 1_555 1_555
C5 O1 1_555 1_555
O3 Zn1C 1_555 1_555

#END
