
#######################################################################
#
#                 Cambridge Crystallographic Data Centre
#                                CCDC 
#
#######################################################################
#
# If this CIF has been generated from an entry in the Cambridge 
# Structural Database, then it will include bibliographic, chemical, 
# crystal, experimental, refinement or atomic coordinate data resulting 
# from the CCDC's data processing and validation procedures.
#
#######################################################################

data_ZOFTAR
_symmetry_cell_setting           triclinic
_symmetry_space_group_name_H-M   'P -1'
_symmetry_Int_Tables_number      2
_space_group_name_Hall           '-P 1'
loop_
_symmetry_equiv_pos_site_id
_symmetry_equiv_pos_as_xyz
1 x,y,z
2 -x,-y,-z
_cell_length_a                   8.463(1)
_cell_length_b                   8.525(1)
_cell_length_c                   11.489(2)
_cell_angle_alpha                95.86(1)
_cell_angle_beta                 107.350(1)
_cell_angle_gamma                107.200(1)
_cell_volume                     739.16
loop_
_atom_site_label
_atom_site_type_symbol
_atom_site_fract_x
_atom_site_fract_y
_atom_site_fract_z
Cu1 Cu 0.0000 0.0000 0.0000
Cu2 Cu 0.5000 0.0000 0.5000
N1 N 0.0791(4) -0.0390(3) 0.1738(2)
C1 C 0.2400(4) -0.0009(4) 0.2556(3)
H1 H 0.3356 0.0517 0.2324
N2 N 0.2713(4) -0.0339(4) 0.3683(3)
C2 C 0.1337(5) -0.1064(4) 0.4043(3)
C3 C -0.0371(5) -0.1510(4) 0.3239(3)
H2 H -0.1325 -0.2011 0.3480
C4 C -0.0605(4) -0.1186(4) 0.2063(3)
C5 C -0.2393(4) -0.1700(4) 0.1023(3)
O1 O -0.2335(3) -0.1301(3) -0.0011(2)
O2 O -0.3712(3) -0.2476(3) 0.1246(2)
C6 C 0.1856(5) -0.1353(4) 0.5380(3)
O3 O 0.3509(3) -0.0961(3) 0.5939(2)
O4 O 0.0664(3) -0.1927(4) 0.5777(2)
O5 O 0.0449(3) -0.2464(3) -0.0751(2)
S1 S 0.23275(11) -0.24466(11) -0.02145(8)
C7 C 0.2130(5) -0.4607(4) -0.0421(3)
H3 H 0.1507 -0.5142 0.0087
H4 H 0.3283 -0.4696 -0.0180
H5 H 0.1492 -0.5146 -0.1281
C8 C 0.3328(5) -0.1923(5) -0.1355(3)
H6 H 0.2547 -0.2588 -0.2161
H7 H 0.4415 -0.2147 -0.1148
H8 H 0.3560 -0.0754 -0.1369
O6 O 0.5053(3) -0.2774(3) 0.4330(2)
S2 S 0.36041(12) -0.39813(11) 0.31941(8)
C9 C 0.4542(5) -0.5395(5) 0.2653(4)
H9 H 0.3647 -0.6255 0.1974
H10 H 0.5021 -0.5900 0.3320
H11 H 0.5464 -0.4792 0.2373
C10 C 0.2167(5) -0.5434(5) 0.3758(4)
H12 H 0.2833 -0.5946 0.4329
H13 H 0.1281 -0.6286 0.3070
H14 H 0.1613 -0.4854 0.4178
N1A N -0.0791(4) 0.0390(3) -0.1738(2)
C1A C -0.2400(4) 0.0009(4) -0.2556(3)
H1A H -0.3356 -0.0517 -0.2324
N2A N -0.2713(4) 0.0339(4) -0.3683(3)
C2A C -0.1337(5) 0.1064(4) -0.4043(3)
C3A C 0.0371(5) 0.1510(4) -0.3239(3)
H2A H 0.1325 0.2011 -0.3480
C4A C 0.0605(4) 0.1186(4) -0.2063(3)
C5A C 0.2393(4) 0.1700(4) -0.1023(3)
O1A O 0.2335(3) 0.1301(3) 0.0011(2)
O2A O 0.3712(3) 0.2476(3) -0.1246(2)
C6A C -0.1856(5) 0.1353(4) -0.5380(3)
O3A O -0.3509(3) 0.0961(3) -0.5939(2)
O4A O -0.0664(3) 0.1927(4) -0.5777(2)
O5A O -0.0449(3) 0.2464(3) 0.0751(2)
S1A S -0.23275(11) 0.24466(11) 0.02145(8)
C7A C -0.2130(5) 0.4607(4) 0.0421(3)
H3A H -0.1507 0.5142 -0.0087
H4A H -0.3283 0.4696 0.0180
H5A H -0.1492 0.5146 0.1281
C8A C -0.3328(5) 0.1923(5) 0.1355(3)
H6A H -0.2547 0.2588 0.2161
H7A H -0.4415 0.2147 0.1148
H8A H -0.3560 0.0754 0.1369
O6A O 0.4947(3) 0.2774(3) 0.5670(2)
S2A S 0.63959(12) 0.39813(11) 0.68059(8)
C9A C 0.5458(5) 0.5395(5) 0.7347(4)
H9A H 0.6353 0.6255 0.8026
H10A H 0.4979 0.5900 0.6680
H11A H 0.4536 0.4792 0.7627
C10A C 0.7833(5) 0.5434(5) 0.6242(4)
H12A H 0.7167 0.5946 0.5671
H13A H 0.8719 0.6286 0.6930
H14A H 0.8387 0.4854 0.5822
Cu2_2 Cu -0.5000 0.0000 -0.5000
N2A_2 N 0.7287(4) 0.0339(4) 0.6317(3)
O3A_2 O 0.6491(3) 0.0961(3) 0.4061(2)
loop_
_geom_bond_atom_site_label_1
_geom_bond_atom_site_label_2
_geom_bond_site_symmetry_1
_geom_bond_site_symmetry_2
Cu1 N1 1_555 1_555
Cu2 N2 1_555 1_555
N1 C1 1_555 1_555
C1 H1 1_555 1_555
N2 C1 1_555 1_555
C2 N2 1_555 1_555
C3 C2 1_555 1_555
H2 C3 1_555 1_555
C4 N1 1_555 1_555
C5 C4 1_555 1_555
O1 Cu1 1_555 1_555
O2 C5 1_555 1_555
C6 C2 1_555 1_555
O3 Cu2 1_555 1_555
O4 C6 1_555 1_555
O5 Cu1 1_555 1_555
S1 O5 1_555 1_555
C7 S1 1_555 1_555
H3 C7 1_555 1_555
H4 C7 1_555 1_555
H5 C7 1_555 1_555
C8 S1 1_555 1_555
H6 C8 1_555 1_555
H7 C8 1_555 1_555
H8 C8 1_555 1_555
O6 Cu2 1_555 1_555
S2 O6 1_555 1_555
C9 S2 1_555 1_555
H9 C9 1_555 1_555
H10 C9 1_555 1_555
H11 C9 1_555 1_555
C10 S2 1_555 1_555
H12 C10 1_555 1_555
H13 C10 1_555 1_555
H14 C10 1_555 1_555
N1A Cu1 1_555 1_555
C1A N1A 1_555 1_555
H1A C1A 1_555 1_555
N2A C1A 1_555 1_555
C2A N2A 1_555 1_555
C3A C2A 1_555 1_555
H2A C3A 1_555 1_555
C4A N1A 1_555 1_555
C5A C4A 1_555 1_555
O1A Cu1 1_555 1_555
O2A C5A 1_555 1_555
C6A C2A 1_555 1_555
O3A C6A 1_555 1_555
O4A C6A 1_555 1_555
O5A Cu1 1_555 1_555
S1A O5A 1_555 1_555
C7A S1A 1_555 1_555
H3A C7A 1_555 1_555
H4A C7A 1_555 1_555
H5A C7A 1_555 1_555
C8A S1A 1_555 1_555
H6A C8A 1_555 1_555
H7A C8A 1_555 1_555
H8A C8A 1_555 1_555
O6A Cu2 1_555 1_555
S2A O6A 1_555 1_555
C9A S2A 1_555 1_555
H9A C9A 1_555 1_555
H10A C9A 1_555 1_555
H11A C9A 1_555 1_555
C10A S2A 1_555 1_555
H12A C10A 1_555 1_555
H13A C10A 1_555 1_555
H14A C10A 1_555 1_555
Cu2_2 N2A 1_555 1_555
N2A_2 Cu2 1_555 1_555
O3A_2 Cu2 1_555 1_555
C3 C4 1_555 1_555
C5 O1 1_555 1_555
C6 O3 1_555 1_555
C3A C4A 1_555 1_555
C5A O1A 1_555 1_555
O3A Cu2_2 1_555 1_555

#END
