
#######################################################################
#
#                 Cambridge Crystallographic Data Centre
#                                CCDC 
#
#######################################################################
#
# If this CIF has been generated from an entry in the Cambridge 
# Structural Database, then it will include bibliographic, chemical, 
# crystal, experimental, refinement or atomic coordinate data resulting 
# from the CCDC's data processing and validation procedures.
#
#######################################################################

data_ZOFYUQ
_symmetry_cell_setting           orthorhombic
_symmetry_space_group_name_H-M   'P b a 2'
_symmetry_Int_Tables_number      32
_space_group_name_Hall           'P 2 -2ab'
loop_
_symmetry_equiv_pos_site_id
_symmetry_equiv_pos_as_xyz
1 x,y,z
2 -x,-y,z
3 1/2+x,1/2-y,z
4 1/2-x,1/2+y,z
_cell_length_a                   16.829(4)
_cell_length_b                   21.250(6)
_cell_length_c                   7.2108(19)
_cell_angle_alpha                90
_cell_angle_beta                 90
_cell_angle_gamma                90
_cell_volume                     2578.7
loop_
_atom_site_label
_atom_site_type_symbol
_atom_site_fract_x
_atom_site_fract_y
_atom_site_fract_z
C1 C 0.7391(5) 1.3450(4) 0.3385(12)
C2 C 0.6637(5) 1.3265(4) 0.2946(16)
H1 H 0.6233 1.3571 0.2754
C3 C 0.6464(5) 1.2638(4) 0.2785(13)
H2 H 0.5937 1.2516 0.2482
C4 C 0.7020(5) 1.2186(4) 0.3045(19)
C5 C 0.7786(5) 1.2357(4) 0.3444(14)
H3 H 0.8179 1.2040 0.3597
C6 C 0.7995(6) 1.2988(4) 0.3628(13)
H4 H 0.8526 1.3106 0.3908
C7 C 0.6098(5) 1.1269(4) 0.3246(15)
H5 H 0.5656 1.1493 0.3734
C8 C 0.7264(6) 1.1055(4) 0.2252(12)
H6 H 0.7803 1.1099 0.1877
C9 C 0.7925(6) 0.5759(4) -0.2321(11)
C10 C 0.7225(6) 0.6092(4) -0.2453(12)
H7 H 0.6733 0.5881 -0.2635
C11 C 0.7254(5) 0.6747(4) -0.2312(12)
H8 H 0.6785 0.6987 -0.2507
C12 C 0.7941(5) 0.7043(4) -0.1902(19)
C13 C 0.8653(5) 0.6723(4) -0.1781(14)
H9 H 0.9136 0.6937 -0.1528
C14 C 0.8635(5) 0.6071(4) -0.2044(15)
H10 H 0.9118 0.5839 -0.2031
C15 C 0.8558(5) 0.8114(4) -0.2302(14)
H11 H 0.9035 0.7976 -0.2875
C16 C 0.7412(5) 0.8117(4) -0.1069(13)
H12 H 0.6913 0.7984 -0.0590
Cd1 Cd 0.71947(4) 0.95853(3) 0.05371(11)
Cd2 Cd 0.5000 1.0000 0.30433(15)
Cl1 Cl 0.86691(15) 0.99930(13) 0.0845(5)
Cl2 Cl 0.42838(13) 1.07279(10) 0.0542(6)
Cl3 Cl 0.43854(13) 1.07259(10) 0.5507(5)
N1 N 0.7617(4) 1.4094(3) 0.3420(11)
H13 H 0.8082 1.4127 0.4083
H14 H 0.7233 1.4314 0.4057
N2 N 0.6863(4) 1.0526(3) 0.2248(9)
N3 N 0.6088(4) 1.0667(3) 0.2864(11)
N4 N 0.6798(4) 1.1531(3) 0.2870(10)
N5 N 0.7910(4) 0.5096(3) -0.2393(9)
H15 H 0.8367 0.4959 -0.2968
H16 H 0.7488 0.4973 -0.3117
N6 N 0.7652(5) 0.8705(3) -0.1119(10)
N7 N 0.8395(4) 0.8702(3) -0.1915(13)
N8 N 0.7961(4) 0.7728(3) -0.1781(11)
C1A C 0.2609(5) 0.6550(4) 0.3385(12)
C2A C 0.3363(5) 0.6735(4) 0.2946(16)
H1A H 0.3767 0.6429 0.2754
C3A C 0.3536(5) 0.7362(4) 0.2785(13)
H2A H 0.4063 0.7484 0.2482
C4A C 0.2980(5) 0.7814(4) 0.3045(19)
C5A C 0.2214(5) 0.7643(4) 0.3444(14)
H3A H 0.1821 0.7960 0.3597
C6A C 0.2005(6) 0.7012(4) 0.3628(13)
H4A H 0.1474 0.6894 0.3908
C7A C 0.3902(5) 0.8731(4) 0.3246(15)
H5A H 0.4344 0.8507 0.3734
C8A C 0.2736(6) 0.8945(4) 0.2252(12)
H6A H 0.2197 0.8901 0.1877
C9A C 0.2075(6) 1.4241(4) -0.2321(11)
C10A C 0.2775(6) 1.3908(4) -0.2453(12)
H7A H 0.3267 1.4119 -0.2635
C11A C 0.2746(5) 1.3253(4) -0.2312(12)
H8A H 0.3215 1.3013 -0.2507
C12A C 0.2059(5) 1.2957(4) -0.1902(19)
C13A C 0.1347(5) 1.3277(4) -0.1781(14)
H9A H 0.0864 1.3063 -0.1528
C14A C 0.1365(5) 1.3929(4) -0.2044(15)
H10A H 0.0882 1.4161 -0.2031
C15A C 0.1442(5) 1.1886(4) -0.2302(14)
H11A H 0.0965 1.2024 -0.2875
C16A C 0.2588(5) 1.1883(4) -0.1069(13)
H12A H 0.3087 1.2016 -0.0590
Cd1A Cd 0.28053(4) 1.04147(3) 0.05371(11)
Cl1A Cl 0.13309(15) 1.00070(13) 0.0845(5)
Cl2A Cl 0.57162(13) 0.92721(10) 0.0542(6)
Cl3A Cl 0.56146(13) 0.92741(10) 0.5507(5)
N1A N 0.2383(4) 0.5906(3) 0.3420(11)
H13A H 0.1918 0.5873 0.4083
H14A H 0.2767 0.5686 0.4057
N2A N 0.3137(4) 0.9474(3) 0.2248(9)
N3A N 0.3912(4) 0.9333(3) 0.2864(11)
N4A N 0.3202(4) 0.8469(3) 0.2870(10)
N5A N 0.2090(4) 1.4904(3) -0.2393(9)
H15A H 0.1633 1.5041 -0.2968
H16A H 0.2512 1.5027 -0.3117
N6A N 0.2348(5) 1.1295(3) -0.1119(10)
N7A N 0.1605(4) 1.1298(3) -0.1915(13)
N8A N 0.2039(4) 1.2272(3) -0.1781(11)
Cd1B Cd 0.21947(4) 0.54147(3) 0.05371(11)
Cd1B_2 Cd 0.21947(4) 1.54147(3) 0.05371(11)
Cd1C Cd 0.78053(4) 0.45853(3) 0.05371(11)
Cd1C_2 Cd 0.78053(4) 1.45853(3) 0.05371(11)
N1B N 0.2617(4) 1.0906(3) 0.3420(11)
N1C N 0.7383(4) 0.9094(3) 0.3420(11)
N5B N 0.2910(4) 0.9904(3) -0.2393(9)
N5C N 0.7090(4) 1.0096(3) -0.2393(9)
loop_
_geom_bond_atom_site_label_1
_geom_bond_atom_site_label_2
_geom_bond_site_symmetry_1
_geom_bond_site_symmetry_2
C1 C2 1_555 1_555
C2 H1 1_555 1_555
C3 C2 1_555 1_555
H2 C3 1_555 1_555
C4 C3 1_555 1_555
C5 C4 1_555 1_555
H3 C5 1_555 1_555
C6 C1 1_555 1_555
H4 C6 1_555 1_555
C7 H5 1_555 1_555
C8 H6 1_555 1_555
C9 C10 1_555 1_555
C10 H7 1_555 1_555
C11 C10 1_555 1_555
H8 C11 1_555 1_555
C12 C11 1_555 1_555
C13 C12 1_555 1_555
H9 C13 1_555 1_555
C14 C9 1_555 1_555
H10 C14 1_555 1_555
C15 H11 1_555 1_555
C16 H12 1_555 1_555
Cd1 Cl1 1_555 1_555
Cd2 Cl2 1_555 1_555
Cl2 Cd1A 1_555 1_555
Cl3 Cd2 1_555 1_555
N1 C1 1_555 1_555
H13 N1 1_555 1_555
H14 N1 1_555 1_555
N2 C8 1_555 1_555
N3 C7 1_555 1_555
N4 C4 1_555 1_555
N5 C9 1_555 1_555
H15 N5 1_555 1_555
H16 N5 1_555 1_555
N6 C16 1_555 1_555
N7 C15 1_555 1_555
N8 C12 1_555 1_555
C1A C2A 1_555 1_555
C2A H1A 1_555 1_555
C3A C2A 1_555 1_555
H2A C3A 1_555 1_555
C4A C3A 1_555 1_555
C5A C4A 1_555 1_555
H3A C5A 1_555 1_555
C6A C1A 1_555 1_555
H4A C6A 1_555 1_555
C7A H5A 1_555 1_555
C8A H6A 1_555 1_555
C9A C10A 1_555 1_555
C10A H7A 1_555 1_555
C11A C10A 1_555 1_555
H8A C11A 1_555 1_555
C12A C11A 1_555 1_555
C13A C12A 1_555 1_555
H9A C13A 1_555 1_555
C14A C9A 1_555 1_555
H10A C14A 1_555 1_555
C15A H11A 1_555 1_555
C16A H12A 1_555 1_555
Cd1A Cl1A 1_555 1_555
Cl2A Cd1 1_555 1_555
Cl3A Cd2 1_555 1_555
N1A C1A 1_555 1_555
H13A N1A 1_555 1_555
H14A N1A 1_555 1_555
N2A C8A 1_555 1_555
N3A Cd2 1_555 1_555
N4A C4A 1_555 1_555
N5A C9A 1_555 1_555
H15A N5A 1_555 1_555
H16A N5A 1_555 1_555
N6A C16A 1_555 1_555
N7A C15A 1_555 1_555
N8A C12A 1_555 1_555
Cd1B N1A 1_555 1_555
Cd1B_2 N5A 1_555 1_555
Cd1C N5 1_555 1_555
Cd1C_2 N1 1_555 1_555
N1B Cd1A 1_555 1_555
N1C Cd1 1_555 1_555
N5B Cd1A 1_555 1_555
N5C Cd1 1_555 1_555
C5 C6 1_555 1_555
C7 N4 1_555 1_555
C8 N4 1_555 1_555
C13 C14 1_555 1_555
C15 N8 1_555 1_555
C16 N8 1_555 1_555
Cd1 N2 1_555 1_555
Cd1 N6 1_555 1_555
Cd2 N3 1_555 1_555
Cd2 Cl2A 1_555 1_555
N2 N3 1_555 1_555
N6 N7 1_555 1_555
C5A C6A 1_555 1_555
C7A N3A 1_555 1_555
C7A N4A 1_555 1_555
C8A N4A 1_555 1_555
C13A C14A 1_555 1_555
C15A N8A 1_555 1_555
C16A N8A 1_555 1_555
Cd1A N2A 1_555 1_555
Cd1A N6A 1_555 1_555
N2A N3A 1_555 1_555
N6A N7A 1_555 1_555

#END
