
#######################################################################
#
#                 Cambridge Crystallographic Data Centre
#                                CCDC 
#
#######################################################################
#
# If this CIF has been generated from an entry in the Cambridge 
# Structural Database, then it will include bibliographic, chemical, 
# crystal, experimental, refinement or atomic coordinate data resulting 
# from the CCDC's data processing and validation procedures.
#
#######################################################################

data_ZOFZIF
_symmetry_cell_setting           tetragonal
_symmetry_space_group_name_H-M   'P -4 21 c'
_symmetry_Int_Tables_number      114
_space_group_name_Hall           'P -4 2n'
loop_
_symmetry_equiv_pos_site_id
_symmetry_equiv_pos_as_xyz
1 x,y,z
2 y,-x,-z
3 -x,-y,z
4 -y,x,-z
5 1/2+x,1/2-y,1/2-z
6 1/2-y,1/2-x,1/2+z
7 1/2-x,1/2+y,1/2-z
8 1/2+y,1/2+x,1/2+z
_cell_length_a                   19.1999(10)
_cell_length_b                   19.1999(10)
_cell_length_c                   25.815(3)
_cell_angle_alpha                90
_cell_angle_beta                 90
_cell_angle_gamma                90
_cell_volume                     9516.34
loop_
_atom_site_label
_atom_site_type_symbol
_atom_site_fract_x
_atom_site_fract_y
_atom_site_fract_z
Mn1 Mn 0.27324(5) 0.78719(5) -0.01636(4)
Mn2 Mn 0.38754(5) 0.80931(5) 0.09078(4)
O1 O 0.3568(4) 0.8276(4) 0.1697(2)
O2 O 0.4846(4) 0.7749(4) 0.1265(3)
O3 O 0.1566(3) 1.2076(2) 0.4091(2)
O4 O 0.2955(3) 0.8713(2) 0.4512(2)
O5 O 0.2097(3) 1.1879(2) 0.48405(18)
O6 O 0.2570(3) 0.9057(3) -0.00885(19)
O7 O 0.2919(3) 0.9424(2) 0.5185(2)
O8 O 0.2200(3) 1.2083(2) 0.08813(18)
O9 O 0.2856(3) 0.8433(2) 0.05969(16)
O10 O 0.2237(4) 1.1590(2) 0.0115(2)
O11 O 0.4169(4) 0.9186(4) 0.0899(3)
C1 C 0.2649(4) 0.9005(4) 0.0388(3)
C2 C 0.2490(4) 0.9620(4) 0.0738(2)
C3 C 0.2418(4) 1.0268(3) 0.0523(3)
H1 H 0.2454 1.0326 0.0167
C4 C 0.2293(4) 1.0835(3) 0.0838(2)
C5 C 0.2240(4) 1.1540(4) 0.0590(3)
C6 C 0.2224(4) 1.0745(4) 0.1362(3)
H2 H 0.2134 1.1125 0.1576
C7 C 0.2290(5) 1.0085(4) 0.1573(2)
C8 C 0.2444(5) 0.9523(4) 0.1259(3)
H3 H 0.2515 0.9084 0.1401
C9 C 0.2197(5) 0.9975(4) 0.2124(2)
C10 C 0.2296(4) 1.0405(4) 0.2534(3)
H4 H 0.2408 1.0876 0.2521
C11 C 0.1909(4) 1.1709(4) 0.4391(3)
C12 C 0.2047(5) 1.0842(4) 0.3682(3)
H5 H 0.1853 1.1165 0.3455
C13 C 0.2130(4) 1.1006(3) 0.4208(2)
C14 C 0.2255(5) 1.0204(4) 0.3506(3)
C15 C 0.2513(5) 0.9698(4) 0.3841(3)
H6 H 0.2641 0.9262 0.3715
C16 C 0.2579(4) 0.9851(3) 0.4365(3)
C17 C 0.2399(4) 1.0517(3) 0.4540(3)
H7 H 0.2462 1.0630 0.4887
C18 C 0.2845(4) 0.9279(3) 0.4723(3)
C19 C 0.4135(16) 0.9671(13) 0.0656(12)
C20 C 0.3391(10) 0.8010(11) 0.2018(9)
C21 C 0.5203(9) 0.7325(9) 0.1086(6)
C22 C 0.427(2) 1.068(2) 0.0165(12)
C23 C 0.4143(13) 1.0501(13) 0.1216(9)
C24 C 0.3720(19) 0.8712(16) 0.2752(15)
C25 C 0.322(2) 0.7676(19) 0.2998(13)
C26 C 0.5837(18) 0.7290(16) 0.1925(10)
C27 C 0.6228(14) 0.6652(14) 0.1082(10)
N1 N 0.1990(6) 0.9362(4) 0.2807(3)
N2 N 0.2008(6) 0.9338(4) 0.2315(3)
N3 N 0.2201(5) 1.0021(4) 0.2961(2)
N4 N 0.4168(10) 1.0448(11) 0.0674(8)
N5 N 0.3497(11) 0.8044(12) 0.2564(8)
N6 N 0.5850(9) 0.7181(10) 0.1359(8)
Mn1C Mn 0.21281(5) 1.27324(5) 0.01636(4)
Mn1F Mn 0.22676(5) 1.28719(5) 0.51636(4)
Mn1G Mn 0.28719(5) 0.77324(5) 0.48364(4)
Mn2F Mn 0.11246(5) 1.30931(5) 0.40922(4)
Mn2G Mn 0.30931(5) 0.88754(5) 0.59078(4)
O3F O 0.3434(3) 0.7076(2) 0.0909(2)
O4G O 0.3713(2) 0.7955(3) -0.0488(2)
O5F O 0.2903(3) 0.6879(2) 0.01595(18)
O7G O 0.4424(2) 0.7919(3) 0.0185(2)
O8A O 0.2083(2) 0.7800(3) -0.08813(18)
O10A O 0.1590(2) 0.7763(4) -0.0115(2)
loop_
_geom_bond_atom_site_label_1
_geom_bond_atom_site_label_2
_geom_bond_site_symmetry_1
_geom_bond_site_symmetry_2
Mn1 O6 1_555 1_555
Mn2 O1 1_555 1_555
O1 C20 1_555 1_555
O2 Mn2 1_555 1_555
O3 C11 1_555 1_555
O4 C18 1_555 1_555
O5 C11 1_555 1_555
O6 C1 1_555 1_555
O7 C18 1_555 1_555
O8 C5 1_555 1_555
O9 Mn1 1_555 1_555
O10 C5 1_555 1_555
O11 Mn2 1_555 1_555
C1 O9 1_555 1_555
C2 C1 1_555 1_555
C3 C2 1_555 1_555
H1 C3 1_555 1_555
C4 C3 1_555 1_555
C5 C4 1_555 1_555
C6 C4 1_555 1_555
H2 C6 1_555 1_555
C7 C6 1_555 1_555
C8 C2 1_555 1_555
H3 C8 1_555 1_555
C9 C7 1_555 1_555
C10 C9 1_555 1_555
H4 C10 1_555 1_555
C11 C13 1_555 1_555
C12 H5 1_555 1_555
C13 C12 1_555 1_555
C14 C12 1_555 1_555
C15 C14 1_555 1_555
H6 C15 1_555 1_555
C16 C15 1_555 1_555
C17 C13 1_555 1_555
H7 C17 1_555 1_555
C18 C16 1_555 1_555
C19 O11 1_555 1_555
C20 N5 1_555 1_555
C21 O2 1_555 1_555
C22 N4 1_555 1_555
C23 N4 1_555 1_555
C24 N5 1_555 1_555
C25 N5 1_555 1_555
C26 N6 1_555 1_555
C27 N6 1_555 1_555
N1 N2 1_555 1_555
N2 C9 1_555 1_555
N3 C10 1_555 1_555
N4 C19 1_555 1_555
N6 C21 1_555 1_555
Mn1C O8 1_555 1_555
Mn1F O5 1_555 1_555
Mn1G O4 1_555 1_555
Mn2F O3 1_555 1_555
Mn2G O7 1_555 1_555
O3F Mn2 1_555 1_555
O4G Mn1 1_555 1_555
O5F Mn1 1_555 1_555
O7G Mn2 1_555 1_555
O8A Mn1 1_555 1_555
O10A Mn1 1_555 1_555
Mn2 O9 1_555 1_555
O10 Mn1C 1_555 1_555
C7 C8 1_555 1_555
C14 N3 1_555 1_555
C16 C17 1_555 1_555
N1 N3 1_555 1_555

#END
