
#######################################################################
#
#                 Cambridge Crystallographic Data Centre
#                                CCDC 
#
#######################################################################
#
# If this CIF has been generated from an entry in the Cambridge 
# Structural Database, then it will include bibliographic, chemical, 
# crystal, experimental, refinement or atomic coordinate data resulting 
# from the CCDC's data processing and validation procedures.
#
#######################################################################

data_ZOFZEB
_symmetry_cell_setting           monoclinic
_symmetry_space_group_name_H-M   'P 21/c'
_symmetry_Int_Tables_number      14
_space_group_name_Hall           '-P 2ybc'
loop_
_symmetry_equiv_pos_site_id
_symmetry_equiv_pos_as_xyz
1 x,y,z
2 -x,1/2+y,1/2-z
3 -x,-y,-z
4 x,1/2-y,1/2+z
_cell_length_a                   9.4335(13)
_cell_length_b                   18.353(3)
_cell_length_c                   32.499(5)
_cell_angle_alpha                90
_cell_angle_beta                 95.807(2)
_cell_angle_gamma                90
_cell_volume                     5597.78
loop_
_atom_site_label
_atom_site_type_symbol
_atom_site_fract_x
_atom_site_fract_y
_atom_site_fract_z
C1 C 0.4114(9) 1.0312(4) 0.2483(3)
C2 C 0.4739(9) 1.0930(4) 0.2352(2)
H1 H 0.5592 1.0899 0.2221
C3 C 0.4137(8) 1.1591(5) 0.2411(3)
H2 H 0.4577 1.2021 0.2322
C4 C 0.2875(8) 1.1641(4) 0.2601(2)
C5 C 0.2236(9) 1.0999(5) 0.2726(3)
H3 H 0.1375 1.1022 0.2854
C6 C 0.2854(9) 1.0334(4) 0.2662(2)
H4 H 0.2416 0.9897 0.2741
C7 C 0.4758(9) 0.8992(5) 0.2655(3)
H5 H 0.4359 0.8967 0.2911
C8 C 0.5408(8) 0.9394(5) 0.2085(3)
H6 H 0.5578 0.9701 0.1860
C9 C 1.1425(9) 0.9920(5) 0.1592(2)
C10 C 1.0918(9) 1.0620(5) 0.1664(2)
H7 H 1.0048 1.0681 0.1784
C11 C 1.1692(9) 1.1229(5) 0.1561(3)
H8 H 1.1348 1.1704 0.1610
C12 C 1.2964(9) 1.1140(5) 0.1388(3)
C13 C 1.3424(9) 1.0432(5) 0.1312(3)
H9 H 1.4279 1.0363 0.1186
C14 C 1.2664(8) 0.9840(5) 0.1417(2)
H10 H 1.3007 0.9365 0.1367
C15 C 1.1075(10) 0.8724(5) 0.1935(3)
H11 H 1.2022 0.8663 0.2060
C16 C 0.9211(9) 0.9168(5) 0.1600(3)
H12 H 0.8581 0.9486 0.1440
C17 C 0.2580(8) 0.5667(5) 0.1816(3)
C18 C 0.1786(9) 0.5560(5) 0.2149(3)
H13 H 0.1602 0.5955 0.2325
C19 C 0.1270(9) 0.4873(5) 0.2221(3)
H14 H 0.0711 0.4802 0.2445
C20 C 0.1546(9) 0.4289(5) 0.1977(3)
C21 C 0.2364(10) 0.4409(5) 0.1648(3)
H15 H 0.2580 0.4013 0.1477
C22 C 0.2858(10) 0.5097(5) 0.1570(3)
H16 H 0.3398 0.5173 0.1342
C23 C 0.2527(9) 0.7037(5) 0.1767(3)
H17 H 0.1566 0.7107 0.1822
C24 C 0.4499(8) 0.6534(5) 0.1667(3)
H18 H 0.5222 0.6182 0.1639
C25 C 0.2961(8) 0.5428(4) 0.0059(2)
C26 C 0.3216(8) 0.4894(5) 0.0355(3)
H19 H 0.3827 0.4985 0.0600
C27 C 0.2562(9) 0.4222(5) 0.0289(2)
H20 H 0.2744 0.3843 0.0486
C28 C 0.1641(8) 0.4102(4) -0.0066(2)
C29 C 0.1387(9) 0.4655(4) -0.0347(3)
H21 H 0.0744 0.4578 -0.0587
C30 C 0.2049(8) 0.5318(5) -0.0286(3)
H22 H 0.1869 0.5697 -0.0483
C31 C 0.3257(9) 0.6801(5) -0.0011(3)
H23 H 0.2360 0.6903 -0.0160
C32 C 0.5020(9) 0.6227(5) 0.0316(3)
H24 H 0.5611 0.5856 0.0444
C33 C 1.1577(8) 0.9830(5) 0.0392(2)
C34 C 1.2872(8) 0.9902(5) 0.0219(2)
H25 H 1.3364 0.9486 0.0133
C35 C 1.3403(8) 1.0586(5) 0.0179(3)
H26 H 1.4303 1.0639 0.0075
C36 C 1.2693(8) 1.1204(4) 0.0284(2)
C37 C 1.1412(8) 1.1122(4) 0.0453(2)
H27 H 1.0908 1.1540 0.0531
C38 C 1.0868(8) 1.0438(5) 0.0509(3)
H28 H 0.9996 1.0386 0.0629
C39 C 1.1677(10) 0.8458(5) 0.0447(4)
H29 H 1.2665 0.8403 0.0420
C40 C 0.9647(8) 0.8923(4) 0.0497(2)
H30 H 0.8892 0.9262 0.0511
Cd1 Cd 0.67304(6) 0.78918(3) 0.166623(18)
Cd2 Cd 0.74568(6) 0.75310(3) 0.047540(19)
I1 I 0.59084(6) 0.87011(3) 0.089366(17)
I2 I 0.82368(6) 0.67203(3) 0.123635(17)
N1 N 0.5785(7) 0.8716(4) 0.2120(2)
N2 N 0.5379(8) 0.8458(4) 0.2491(2)
N3 N 0.4747(7) 0.9603(4) 0.2410(2)
N4 N 0.2295(7) 1.2332(3) 0.2684(2)
H31 H 0.1326 1.2283 0.2687
H32 H 0.2448 1.2642 0.2470
N5 N 0.8830(7) 0.8555(4) 0.1745(2)
N6 N 1.0030(8) 0.8255(4) 0.1966(2)
N7 N 1.0610(7) 0.9308(4) 0.1700(2)
N8 N 1.3711(9) 1.1735(4) 0.1283(3)
H33 H 1.3386 1.2176 0.1325
H34 H 1.4519 1.1680 0.1173
N9 N 0.4671(7) 0.7231(4) 0.1633(2)
N10 N 0.3396(7) 0.7568(4) 0.1701(2)
N11 N 0.3154(7) 0.6374(4) 0.1747(2)
N12 N 0.1072(8) 0.3587(4) 0.2058(2)
H35 H 0.0582 0.3509 0.2270
H36 H 0.1264 0.3223 0.1896
N13 N 0.5368(7) 0.6911(4) 0.0304(2)
N14 N 0.4224(8) 0.7281(4) 0.0096(2)
N15 N 0.3712(7) 0.6117(4) 0.0123(2)
N16 N 0.1063(7) 0.3380(4) -0.0143(2)
H37 H 0.0214 0.3427 -0.0307
H38 H 0.0856 0.3191 0.0106
N17 N 0.9515(7) 0.8226(4) 0.0521(2)
N18 N 1.0828(8) 0.7915(4) 0.0487(3)
N19 N 1.1021(7) 0.9109(4) 0.0448(2)
N20 N 1.3262(7) 1.1908(4) 0.0221(2)
H39 H 1.4078 1.1953 0.0114
H40 H 1.2798 1.2299 0.0288
Cd1A Cd 0.32696(6) 1.28918(3) 0.333377(18)
Cd2B Cd 0.25432(6) 0.24690(3) -0.047540(19)
Cd2B_2 Cd 1.25432(6) 1.24690(3) -0.047540(19)
N4A N 0.7705(7) 0.7332(3) 0.2316(2)
N16B N 0.8937(7) 0.6620(4) 0.0143(2)
N20B N 0.6738(7) 0.8092(4) -0.0221(2)
Cd3 Cd 0.77509(7) 0.24318(4) 0.12332(2)
I3 I 1.01772(6) 0.30261(3) 0.092703(18)
I4 I 0.82009(7) 0.22376(4) 0.207788(19)
I5 I 0.55696(7) 0.34445(4) 0.10818(2)
I6 I 0.71411(7) 0.11069(4) 0.08421(2)
O1 O 0.8323(11) 0.3527(6) 0.9211(3)
O2 O 0.3914(19) 0.4791(10) 0.8839(6)
loop_
_geom_bond_atom_site_label_1
_geom_bond_atom_site_label_2
_geom_bond_site_symmetry_1
_geom_bond_site_symmetry_2
C1 C2 1_555 1_555
C2 H1 1_555 1_555
C3 C2 1_555 1_555
H2 C3 1_555 1_555
C4 C3 1_555 1_555
C5 C4 1_555 1_555
H3 C5 1_555 1_555
C6 C1 1_555 1_555
H4 C6 1_555 1_555
C7 H5 1_555 1_555
C8 H6 1_555 1_555
C9 C10 1_555 1_555
C10 H7 1_555 1_555
C11 C10 1_555 1_555
H8 C11 1_555 1_555
C12 C11 1_555 1_555
C13 C12 1_555 1_555
H9 C13 1_555 1_555
C14 C9 1_555 1_555
H10 C14 1_555 1_555
C15 H11 1_555 1_555
C16 H12 1_555 1_555
C17 C18 1_555 1_555
C18 H13 1_555 1_555
C19 C18 1_555 1_555
H14 C19 1_555 1_555
C20 C19 1_555 1_555
C21 C20 1_555 1_555
H15 C21 1_555 1_555
C22 C17 1_555 1_555
H16 C22 1_555 1_555
C23 H17 1_555 1_555
C24 H18 1_555 1_555
C25 C26 1_555 1_555
C26 H19 1_555 1_555
C27 C26 1_555 1_555
H20 C27 1_555 1_555
C28 C27 1_555 1_555
C29 C28 1_555 1_555
H21 C29 1_555 1_555
C30 C25 1_555 1_555
H22 C30 1_555 1_555
C31 H23 1_555 1_555
C32 H24 1_555 1_555
C33 C34 1_555 1_555
C34 H25 1_555 1_555
C35 C34 1_555 1_555
H26 C35 1_555 1_555
C36 C35 1_555 1_555
C37 C36 1_555 1_555
H27 C37 1_555 1_555
C38 C33 1_555 1_555
H28 C38 1_555 1_555
C39 H29 1_555 1_555
C40 H30 1_555 1_555
Cd1 I1 1_555 1_555
Cd2 I1 1_555 1_555
I2 Cd1 1_555 1_555
N1 C8 1_555 1_555
N2 C7 1_555 1_555
N3 C1 1_555 1_555
N4 C4 1_555 1_555
H31 N4 1_555 1_555
H32 N4 1_555 1_555
N5 C16 1_555 1_555
N6 C15 1_555 1_555
N7 C9 1_555 1_555
N8 C12 1_555 1_555
H33 N8 1_555 1_555
H34 N8 1_555 1_555
N9 C24 1_555 1_555
N10 C23 1_555 1_555
N11 C17 1_555 1_555
N12 C20 1_555 1_555
H35 N12 1_555 1_555
H36 N12 1_555 1_555
N13 C32 1_555 1_555
N14 C31 1_555 1_555
N15 C25 1_555 1_555
N16 C28 1_555 1_555
H37 N16 1_555 1_555
H38 N16 1_555 1_555
N17 C40 1_555 1_555
N18 C39 1_555 1_555
N19 C33 1_555 1_555
N20 C36 1_555 1_555
H39 N20 1_555 1_555
H40 N20 1_555 1_555
Cd3 I3 1_555 1_555
I4 Cd3 1_555 1_555
I5 Cd3 1_555 1_555
I6 Cd3 1_555 1_555
Cd1A N4 1_555 1_555
Cd2B N16 1_555 1_555
Cd2B_2 N20 1_555 1_555
N4A Cd1 1_555 1_555
N16B Cd2 1_555 1_555
N20B Cd2 1_555 1_555
C5 C6 1_555 1_555
C7 N3 1_555 1_555
C8 N3 1_555 1_555
C13 C14 1_555 1_555
C15 N7 1_555 1_555
C16 N7 1_555 1_555
C21 C22 1_555 1_555
C23 N11 1_555 1_555
C24 N11 1_555 1_555
C29 C30 1_555 1_555
C31 N15 1_555 1_555
C32 N15 1_555 1_555
C37 C38 1_555 1_555
C39 N19 1_555 1_555
C40 N19 1_555 1_555
Cd1 N1 1_555 1_555
Cd1 N5 1_555 1_555
Cd1 N9 1_555 1_555
Cd2 I2 1_555 1_555
Cd2 N13 1_555 1_555
Cd2 N17 1_555 1_555
N1 N2 1_555 1_555
N5 N6 1_555 1_555
N9 N10 1_555 1_555
N13 N14 1_555 1_555
N17 N18 1_555 1_555

#END
