
#######################################################################
#
#                 Cambridge Crystallographic Data Centre
#                                CCDC 
#
#######################################################################
#
# If this CIF has been generated from an entry in the Cambridge 
# Structural Database, then it will include bibliographic, chemical, 
# crystal, experimental, refinement or atomic coordinate data resulting 
# from the CCDC's data processing and validation procedures.
#
#######################################################################

data_ZOGBII
_symmetry_cell_setting           rhombohedral
_symmetry_space_group_name_H-M   'R -3 c'
_symmetry_Int_Tables_number      167
_space_group_name_Hall           '-R 3 2"c'
loop_
_symmetry_equiv_pos_site_id
_symmetry_equiv_pos_as_xyz
1 x,y,z
2 -y,x-y,z
3 -x+y,-x,z
4 y,x,1/2-z
5 x-y,-y,1/2-z
6 -x,-x+y,1/2-z
7 2/3+x,1/3+y,1/3+z
8 2/3-y,1/3+x-y,1/3+z
9 2/3-x+y,1/3-x,1/3+z
10 2/3+y,1/3+x,5/6-z
11 2/3+x-y,1/3-y,5/6-z
12 2/3-x,1/3-x+y,5/6-z
13 1/3+x,2/3+y,2/3+z
14 1/3-y,2/3+x-y,2/3+z
15 1/3-x+y,2/3-x,2/3+z
16 1/3+y,2/3+x,1/6-z
17 1/3+x-y,2/3-y,1/6-z
18 1/3-x,2/3-x+y,1/6-z
19 -x,-y,-z
20 y,-x+y,-z
21 x-y,x,-z
22 -y,-x,1/2+z
23 -x+y,y,1/2+z
24 x,x-y,1/2+z
25 1/3-x,2/3-y,2/3-z
26 1/3+y,2/3-x+y,2/3-z
27 1/3+x-y,2/3+x,2/3-z
28 1/3-y,2/3-x,1/6+z
29 1/3-x+y,2/3+y,1/6+z
30 1/3+x,2/3+x-y,1/6+z
31 2/3-x,1/3-y,1/3-z
32 2/3+y,1/3-x+y,1/3-z
33 2/3+x-y,1/3+x,1/3-z
34 2/3-y,1/3-x,5/6+z
35 2/3-x+y,1/3+y,5/6+z
36 2/3+x,1/3+x-y,5/6+z
_cell_length_a                   15.7069(13)
_cell_length_b                   15.7069(13)
_cell_length_c                   52.887(9)
_cell_angle_alpha                90
_cell_angle_beta                 90
_cell_angle_gamma                120
_cell_volume                     11299.5
loop_
_atom_site_label
_atom_site_type_symbol
_atom_site_fract_x
_atom_site_fract_y
_atom_site_fract_z
In1 In 1.13481(2) 0.80148(2) 0.0833
O1 O 1.12978(19) 0.70997(18) 0.05130(5)
O2 O 1.0691(2) 0.6578(2) 0.01286(5)
O3 O 0.7168(2) 0.7929(2) 0.04338(6)
O4 O 0.78362(19) 0.83109(19) 0.08120(5)
N1 N 0.9961(2) 0.7631(2) 0.06111(5)
C1 C 1.0693(3) 0.6939(3) 0.03342(8)
C2 C 0.9904(3) 0.7206(3) 0.03869(7)
C3 C 0.9160(3) 0.7019(3) 0.02205(7)
H1 H 0.9124 0.6720 0.0066
C4 C 0.8466(3) 0.7274(3) 0.02826(8)
H2 H 0.7961 0.7151 0.0170
C5 C 0.8526(3) 0.7712(3) 0.05121(7)
C6 C 0.9287(3) 0.7873(3) 0.06708(7)
H3 H 0.9331 0.8165 0.0827
C7 C 0.7787(3) 0.7996(3) 0.05864(9)
O1A O 1.29003(18) 1.41981(26) 0.05130(5)
O2A O 1.3422(2) 1.4113(3) 0.01286(5)
O3A O 1.2071(2) 0.9239(3) 0.04338(6)
O4A O 1.16891(19) 0.95253(27) 0.08120(5)
N1A N 1.2369(2) 1.2330(3) 0.06111(5)
C1A C 1.3061(3) 1.3754(4) 0.03342(8)
C2A C 1.2794(3) 1.2698(4) 0.03869(7)
C3A C 1.2981(3) 1.2141(4) 0.02205(7)
H1A H 1.3280 1.2404 0.0066
C4A C 1.2726(3) 1.1192(4) 0.02826(8)
H2A H 1.2849 1.0810 0.0170
C5A C 1.2288(3) 1.0814(4) 0.05121(7)
C6A C 1.2127(3) 1.1414(4) 0.06708(7)
H3A H 1.1835 1.1166 0.0827
C7A C 1.2004(3) 0.9791(4) 0.05864(9)
In1A In 1.19852(2) 1.33333(3) 0.0833
In1B In 0.66667(3) 0.86519(2) 0.0833
O1O O 1.04330(18) 0.79645(19) 0.11537(5)
O4P O 1.28586(27) 0.83558(19) 0.08547(5)
N1O N 1.0964(2) 0.6628(2) 0.10556(5)
loop_
_geom_bond_atom_site_label_1
_geom_bond_atom_site_label_2
_geom_bond_site_symmetry_1
_geom_bond_site_symmetry_2
In1 O1 1_555 1_555
O1 C1 1_555 1_555
O2 C1 1_555 1_555
O3 C7 1_555 1_555
O4 C7 1_555 1_555
N1 In1 1_555 1_555
C1 C2 1_555 1_555
C2 N1 1_555 1_555
C3 C2 1_555 1_555
H1 C3 1_555 1_555
C4 C3 1_555 1_555
H2 C4 1_555 1_555
C5 C4 1_555 1_555
C6 N1 1_555 1_555
H3 C6 1_555 1_555
C7 C5 1_555 1_555
O1A C1A 1_555 1_555
O2A C1A 1_555 1_555
O3A C7A 1_555 1_555
O4A In1 1_555 1_555
N1A C2A 1_555 1_555
C1A C2A 1_555 1_555
C2A C3A 1_555 1_555
C3A H1A 1_555 1_555
C4A C3A 1_555 1_555
H2A C4A 1_555 1_555
C5A C4A 1_555 1_555
C6A N1A 1_555 1_555
H3A C6A 1_555 1_555
C7A O4A 1_555 1_555
In1A O1A 1_555 1_555
In1B O4 1_555 1_555
O1O In1 1_555 1_555
O4P In1 1_555 1_555
N1O In1 1_555 1_555
C5 C6 1_555 1_555
N1A In1A 1_555 1_555
C5A C6A 1_555 1_555
C5A C7A 1_555 1_555

#END
