
#######################################################################
#
#                 Cambridge Crystallographic Data Centre
#                                CCDC 
#
#######################################################################
#
# If this CIF has been generated from an entry in the Cambridge 
# Structural Database, then it will include bibliographic, chemical, 
# crystal, experimental, refinement or atomic coordinate data resulting 
# from the CCDC's data processing and validation procedures.
#
#######################################################################

data_ZOGFOQ
_symmetry_cell_setting           monoclinic
_symmetry_space_group_name_H-M   'P 21/n'
_symmetry_Int_Tables_number      14
_space_group_name_Hall           '-P 2yn'
loop_
_symmetry_equiv_pos_site_id
_symmetry_equiv_pos_as_xyz
1 x,y,z
2 1/2-x,1/2+y,1/2-z
3 -x,-y,-z
4 1/2+x,1/2-y,1/2+z
_cell_length_a                   7.367(2)
_cell_length_b                   28.569(5)
_cell_length_c                   8.449(3)
_cell_angle_alpha                90
_cell_angle_beta                 96.24(7)
_cell_angle_gamma                90
_cell_volume                     1767.71
loop_
_atom_site_label
_atom_site_type_symbol
_atom_site_fract_x
_atom_site_fract_y
_atom_site_fract_z
Mn1 Mn 0.11995(5) 0.27756(1) -0.13600(4)
Mn2 Mn 0.19255(5) 0.08768(1) 0.03664(4)
O1 O 0.0416(3) 0.27608(6) 0.1052(2)
O2 O 0.2550(3) 0.38543(6) -0.2599(2)
O3 O 0.0206(3) 0.31521(6) 0.3284(2)
O4 O 0.2109(4) 0.47882(7) 0.1648(3)
O5 O 0.3879(3) 0.25696(8) -0.0261(2)
O6 O -0.1610(3) 0.29632(7) -0.2307(2)
O7 O 0.2572(3) 0.28870(7) -0.3510(2)
O8 O 0.0567(3) 0.20880(6) -0.2367(2)
O9 O 0.0847(3) 0.15662(6) -0.0393(2)
O10 O 0.2042(3) 0.00981(7) -0.2793(2)
O11 O 0.2242(3) 0.10839(7) -0.6988(2)
O12 O 0.4549(3) 0.11858(9) 0.0333(2)
O13 O 0.3355(3) 0.02058(7) 0.0643(2)
O14 O -0.0572(3) 0.05462(7) 0.0831(3)
N1 N 0.1604(3) 0.35055(7) -0.0414(2)
N2 N 0.2288(3) 0.43049(7) -0.0440(2)
N3 N 0.1525(3) 0.08688(7) -0.2328(2)
N4 N 0.2051(3) 0.05973(7) -0.4874(2)
C1 C 0.2156(3) 0.38794(8) -0.1184(3)
C2 C 0.1952(4) 0.43820(9) 0.1103(3)
C3 C 0.1425(4) 0.39792(9) 0.1927(3)
C4 C 0.1245(3) 0.35655(8) 0.1119(3)
C5 C 0.0575(3) 0.31256(8) 0.1891(3)
C6 C 0.1869(4) 0.05102(8) -0.3283(3)
C7 C 0.1931(3) 0.10333(8) -0.5564(3)
C8 C 0.1471(3) 0.14003(8) -0.4547(3)
C9 C 0.1295(3) 0.12982(8) -0.2991(5)
C10 C 0.0857(3) 0.16807(8) -0.1815(3)
H1 H 0.2517 0.4536 -0.0993
H2 H 0.1197 0.3998 0.3080
H3 H 0.2375 0.0365 -0.5436
H4 H 0.4508 0.2708 0.0489
H5 H 0.4546 0.2327 -0.0664
H6 H -0.2015 0.3233 -0.2305
H7 H -0.2158 0.2834 -0.3186
H8 H 0.3460 0.2682 -0.3694
H9 H 0.2942 0.3176 -0.3629
H10 H 0.1277 0.1729 -0.4961
H11 H 0.5475 0.1118 0.0996
H12 H 0.4758 0.1415 -0.0350
H13 H 0.3283 0.0091 -0.0296
H14 H 0.3300 0.0007 0.1468
H15 H -0.1125 0.0747 0.1350
H16 H -0.0508 0.0262 0.1282
O11_2 O 0.2242(3) 0.10839(7) 0.3012(2)
Mn2_2 Mn 0.19255(5) 0.08768(1) -0.96336(4)
loop_
_geom_bond_atom_site_label_1
_geom_bond_atom_site_label_2
_geom_bond_site_symmetry_1
_geom_bond_site_symmetry_2
Mn1 O1 1_555 1_555
Mn2 O9 1_555 1_555
O1 C5 1_555 1_555
O2 C1 1_555 1_555
O3 C5 1_555 1_555
O4 C2 1_555 1_555
O5 Mn1 1_555 1_555
O6 Mn1 1_555 1_555
O7 Mn1 1_555 1_555
O8 Mn1 1_555 1_555
O9 C10 1_555 1_555
O10 C6 1_555 1_555
O11 C7 1_555 1_555
O12 Mn2 1_555 1_555
O13 Mn2 1_555 1_555
O14 Mn2 1_555 1_555
N1 Mn1 1_555 1_555
N2 C1 1_555 1_555
N3 Mn2 1_555 1_555
N4 C6 1_555 1_555
C1 N1 1_555 1_555
C2 N2 1_555 1_555
C3 C2 1_555 1_555
C4 N1 1_555 1_555
C5 C4 1_555 1_555
C6 N3 1_555 1_555
C7 N4 1_555 1_555
C8 C7 1_555 1_555
C9 N3 1_555 1_555
C10 O8 1_555 1_555
H1 N2 1_555 1_555
H2 C3 1_555 1_555
H3 N4 1_555 1_555
H4 O5 1_555 1_555
H5 O5 1_555 1_555
H6 O6 1_555 1_555
H7 O6 1_555 1_555
H8 O7 1_555 1_555
H9 O7 1_555 1_555
H10 C8 1_555 1_555
H11 O12 1_555 1_555
H12 O12 1_555 1_555
H13 O13 1_555 1_555
H14 O13 1_555 1_555
H15 O14 1_555 1_555
H16 O14 1_555 1_555
O11_2 Mn2 1_555 1_555
Mn2_2 O11 1_555 1_555
C3 C4 1_555 1_555
C8 C9 1_555 1_555
C9 C10 1_555 1_555

#END
