
#######################################################################
#
#                 Cambridge Crystallographic Data Centre
#                                CCDC 
#
#######################################################################
#
# If this CIF has been generated from an entry in the Cambridge 
# Structural Database, then it will include bibliographic, chemical, 
# crystal, experimental, refinement or atomic coordinate data resulting 
# from the CCDC's data processing and validation procedures.
#
#######################################################################

data_ZOGKUD
_symmetry_cell_setting           monoclinic
_symmetry_space_group_name_H-M   'P 21/n'
_symmetry_Int_Tables_number      14
_space_group_name_Hall           '-P 2yn'
loop_
_symmetry_equiv_pos_site_id
_symmetry_equiv_pos_as_xyz
1 x,y,z
2 1/2-x,1/2+y,1/2-z
3 -x,-y,-z
4 1/2+x,1/2-y,1/2+z
_cell_length_a                   7.0424(2)
_cell_length_b                   19.0302(4)
_cell_length_c                   10.1561(2)
_cell_angle_alpha                90
_cell_angle_beta                 97.7910(10)
_cell_angle_gamma                90
_cell_volume                     1348.54
loop_
_atom_site_label
_atom_site_type_symbol
_atom_site_fract_x
_atom_site_fract_y
_atom_site_fract_z
Cu1 Cu 0.15225(3) 0.241355(12) 0.59226(2)
S1 S 0.75702(8) 0.20794(4) 0.85072(5)
O1 O 0.1563(2) 0.33536(7) 0.65695(13)
N1 N 0.4093(3) 0.22510(10) 0.68926(18)
N2 N -0.1195(2) 0.24330(8) 0.52993(15)
N3 N 0.1276(2) 0.13550(9) 0.53823(16)
C1 C 0.5528(3) 0.21790(11) 0.75650(18)
C2 C 0.0164(3) 0.38053(10) 0.64064(19)
C3 C 0.0534(4) 0.45040(12) 0.6828(2)
H1 H 0.1774 0.4631 0.7180
C4 C -0.0889(4) 0.50012(14) 0.6731(3)
H2 H -0.0592 0.5460 0.6999
C5 C -0.2761(4) 0.48273(14) 0.6240(3)
H3 H -0.3727 0.5162 0.6210
C6 C -0.3171(4) 0.41663(14) 0.5804(2)
H4 H -0.4428 0.4053 0.5468
C7 C -0.1743(3) 0.36427(11) 0.58450(19)
C8 C -0.2300(3) 0.29669(11) 0.53362(18)
H5 H -0.3584 0.2906 0.4999
C9 C -0.2027(3) 0.17624(11) 0.4800(2)
H6 H -0.3017 0.1843 0.4054
H7 H -0.2597 0.1523 0.5493
C10 C -0.0441(3) 0.13233(11) 0.4372(2)
H8 H -0.0865 0.0840 0.4251
H9 H -0.0126 0.1495 0.3529
C11 C 0.0974(4) 0.09635(12) 0.6592(2)
H10 H -0.0058 0.1174 0.6980
H11 H 0.2124 0.0979 0.7219
H12 H 0.0662 0.0484 0.6365
C12 C 0.2921(3) 0.10501(13) 0.4825(3)
H13 H 0.2646 0.0570 0.4577
H14 H 0.4039 0.1068 0.5480
H15 H 0.3149 0.1314 0.4056
Cu1C Cu 0.65225(3) 0.258645(12) 1.09226(2)
S1C S 0.25702(8) 0.29206(4) 0.35072(5)
loop_
_geom_bond_atom_site_label_1
_geom_bond_atom_site_label_2
_geom_bond_site_symmetry_1
_geom_bond_site_symmetry_2
Cu1 O1 1_555 1_555
S1 C1 1_555 1_555
O1 C2 1_555 1_555
N1 Cu1 1_555 1_555
N2 Cu1 1_555 1_555
N3 Cu1 1_555 1_555
C1 N1 1_555 1_555
C2 C3 1_555 1_555
C3 H1 1_555 1_555
C4 C3 1_555 1_555
H2 C4 1_555 1_555
C5 C4 1_555 1_555
H3 C5 1_555 1_555
C6 C5 1_555 1_555
H4 C6 1_555 1_555
C7 C2 1_555 1_555
C8 N2 1_555 1_555
H5 C8 1_555 1_555
C9 N2 1_555 1_555
H6 C9 1_555 1_555
H7 C9 1_555 1_555
C10 N3 1_555 1_555
H8 C10 1_555 1_555
H9 C10 1_555 1_555
C11 N3 1_555 1_555
H10 C11 1_555 1_555
H11 C11 1_555 1_555
H12 C11 1_555 1_555
C12 N3 1_555 1_555
H13 C12 1_555 1_555
H14 C12 1_555 1_555
H15 C12 1_555 1_555
Cu1C S1 1_555 1_555
S1C Cu1 1_555 1_555
C6 C7 1_555 1_555
C7 C8 1_555 1_555
C9 C10 1_555 1_555

#END
