
#######################################################################
#
#                 Cambridge Crystallographic Data Centre
#                                CCDC 
#
#######################################################################
#
# If this CIF has been generated from an entry in the Cambridge 
# Structural Database, then it will include bibliographic, chemical, 
# crystal, experimental, refinement or atomic coordinate data resulting 
# from the CCDC's data processing and validation procedures.
#
#######################################################################

data_ZOHBEF
_symmetry_cell_setting           monoclinic
_symmetry_space_group_name_H-M   'P 21/c'
_symmetry_Int_Tables_number      14
_space_group_name_Hall           '-P 2ybc'
loop_
_symmetry_equiv_pos_site_id
_symmetry_equiv_pos_as_xyz
1 x,y,z
2 -x,1/2+y,1/2-z
3 -x,-y,-z
4 x,1/2-y,1/2+z
_cell_length_a                   15.930(6)
_cell_length_b                   13.588(5)
_cell_length_c                   6.663(2)
_cell_angle_alpha                90
_cell_angle_beta                 97.392(5)
_cell_angle_gamma                90
_cell_volume                     1430.27
loop_
_atom_site_label
_atom_site_type_symbol
_atom_site_fract_x
_atom_site_fract_y
_atom_site_fract_z
Pr1 Pr 0.74945(3) 0.94004(3) 1.02861(7)
C1 C 0.6433(5) 0.7839(6) 0.6575(12)
C2 C 0.5485(5) 0.7834(6) 0.6230(12)
C3 C 0.5056(5) 0.8738(6) 0.6211(12)
H1 H 0.5370 0.9312 0.6453
C4 C 0.3768(5) 0.7975(6) 0.5552(13)
H2 H 0.3181 0.8022 0.5309
C5 C 0.4136(5) 0.7042(6) 0.5578(12)
C6 C 0.5007(5) 0.6972(6) 0.5930(12)
H3 H 0.5271 0.6361 0.5968
C7 C 0.3577(5) 0.6144(6) 0.5218(13)
C8 C 0.8993(8) 0.9524(8) 1.3290(19)
C9 C 0.9813(8) 0.9539(7) 1.489(2)
H4 H 0.9665 0.9325 1.6188
H5 H 1.0219 0.9073 1.4476
N1 N 0.4216(4) 0.8805(5) 0.5860(10)
O1 O 0.6806(4) 0.8620(4) 0.7099(9)
O2 O 0.6796(4) 0.7044(4) 0.6333(11)
O3 O 0.2813(4) 0.6245(4) 0.4505(10)
O4 O 0.3898(4) 0.5309(4) 0.5630(10)
O5 O 0.8886(4) 1.0133(5) 1.1850(13)
O6 O 0.8490(5) 0.8830(7) 1.3394(15)
O7 O 0.6916(5) 0.9771(5) 1.3562(10)
H6 H 0.6981 0.9291 1.4311
H7 H 0.6393 0.9908 1.3306
O8 O 0.8024(5) 1.0280(5) 0.7362(10)
H8 H 0.8086 1.0867 0.7629
H9 H 0.7667 1.0209 0.6309
O9 O 0.8557(5) 0.8170(6) 0.9244(16)
H10 H 0.8337 0.7624 0.9114
H11 H 0.8714 0.8350 0.8129
C8B C 1.1007(8) 1.0476(8) 1.6710(19)
C9B C 1.0187(8) 1.0461(7) 1.511(2)
H4B H 1.0335 1.0675 1.3812
H5B H 0.9781 1.0927 1.5524
O5B O 1.1114(4) 0.9867(5) 1.8150(13)
O6B O 1.1510(5) 1.1170(7) 1.6606(15)
Pr1B Pr 1.25055(3) 1.05996(3) 1.97139(7)
C1B C 1.3567(5) 1.2161(6) 2.3425(12)
C2B C 1.4515(5) 1.2166(6) 2.3770(12)
C3B C 1.4944(5) 1.1262(6) 2.3789(12)
H1B H 1.4630 1.0688 2.3547
C4B C 1.6232(5) 1.2025(6) 2.4448(13)
H2B H 1.6819 1.1978 2.4691
C5B C 1.5864(5) 1.2958(6) 2.4422(12)
C6B C 1.4993(5) 1.3028(6) 2.4070(12)
H3B H 1.4729 1.3639 2.4032
C7B C 1.6423(5) 1.3856(6) 2.4782(13)
N1B N 1.5784(4) 1.1195(5) 2.4140(10)
O1B O 1.3194(4) 1.1380(4) 2.2901(9)
O2B O 1.3204(4) 1.2956(4) 2.3667(11)
O3B O 1.7187(4) 1.3755(4) 2.5495(10)
O4B O 1.6102(4) 1.4691(4) 2.4370(10)
O7B O 1.3084(5) 1.0229(5) 1.6438(10)
H6B H 1.3019 1.0709 1.5689
H7B H 1.3607 1.0092 1.6694
O8B O 1.1976(5) 0.9720(5) 2.2638(10)
H8B H 1.1914 0.9133 2.2371
H9B H 1.2333 0.9791 2.3691
O9B O 1.1443(5) 1.1830(6) 2.0756(16)
H10B H 1.1663 1.2376 2.0886
H11B H 1.1286 1.1650 2.1871
Pr1A Pr 0.25055(3) 0.44004(3) 0.47139(7)
Pr1A_2 Pr 1.25055(3) 1.44004(3) 2.47139(7)
Pr1C Pr 0.74945(3) 0.55996(3) 0.52861(7)
Pr1C_2 Pr 1.74945(3) 1.55996(3) 2.52861(7)
O2A O 1.3204(4) 1.2044(4) 1.8667(11)
O2C O 0.6796(4) 0.7956(4) 1.1333(11)
O3A O 0.7187(4) 1.1245(4) 1.0495(10)
O3C O 1.2813(4) 0.8755(4) 1.9505(10)
O4A O 0.6102(4) 1.0309(4) 0.9370(10)
O4C O 1.3898(4) 0.9691(4) 2.0630(10)
O10 O 0.0290(4) 0.8378(6) -0.0065(17)
H12 H -0.0165 0.8176 -0.0748
H13 H 0.0227 0.8485 0.1163
O11 O 0.8374(5) 0.2279(5) 0.6894(16)
H14 H 0.8536 0.2335 0.8154
H15 H 0.8809 0.2378 0.6304
loop_
_geom_bond_atom_site_label_1
_geom_bond_atom_site_label_2
_geom_bond_site_symmetry_1
_geom_bond_site_symmetry_2
Pr1 O1 1_555 1_555
C1 C2 1_555 1_555
C2 C3 1_555 1_555
C3 H1 1_555 1_555
C4 H2 1_555 1_555
C5 C4 1_555 1_555
C6 C2 1_555 1_555
H3 C6 1_555 1_555
C7 C5 1_555 1_555
C8 C9 1_555 1_555
C9 H4 1_555 1_555
H5 C9 1_555 1_555
N1 C3 1_555 1_555
O1 C1 1_555 1_555
O2 C1 1_555 1_555
O3 C7 1_555 1_555
O4 C7 1_555 1_555
O5 Pr1 1_555 1_555
O6 Pr1 1_555 1_555
O7 Pr1 1_555 1_555
H6 O7 1_555 1_555
H7 O7 1_555 1_555
O8 Pr1 1_555 1_555
H8 O8 1_555 1_555
H9 O8 1_555 1_555
O9 Pr1 1_555 1_555
H10 O9 1_555 1_555
H11 O9 1_555 1_555
O10 H12 1_555 1_555
H13 O10 1_555 1_555
O11 H14 1_555 1_555
H15 O11 1_555 1_555
C8B C9B 1_555 1_555
C9B C9 1_555 1_555
H4B C9B 1_555 1_555
H5B C9B 1_555 1_555
O5B C8B 1_555 1_555
O6B C8B 1_555 1_555
Pr1B O5B 1_555 1_555
C1B C2B 1_555 1_555
C2B C3B 1_555 1_555
C3B H1B 1_555 1_555
C4B H2B 1_555 1_555
C5B C4B 1_555 1_555
C6B C2B 1_555 1_555
H3B C6B 1_555 1_555
C7B C5B 1_555 1_555
N1B C3B 1_555 1_555
O1B Pr1B 1_555 1_555
O2B C1B 1_555 1_555
O3B C7B 1_555 1_555
O4B C7B 1_555 1_555
O7B Pr1B 1_555 1_555
H6B O7B 1_555 1_555
H7B O7B 1_555 1_555
O8B Pr1B 1_555 1_555
H8B O8B 1_555 1_555
H9B O8B 1_555 1_555
O9B Pr1B 1_555 1_555
H10B O9B 1_555 1_555
H11B O9B 1_555 1_555
Pr1A O3 1_555 1_555
Pr1A_2 O2B 1_555 1_555
Pr1C O2 1_555 1_555
Pr1C_2 O3B 1_555 1_555
O2A Pr1B 1_555 1_555
O2C Pr1 1_555 1_555
O3A Pr1 1_555 1_555
O3C Pr1B 1_555 1_555
O4A Pr1 1_555 1_555
O4C Pr1B 1_555 1_555
C4 N1 1_555 1_555
C5 C6 1_555 1_555
C8 O5 1_555 1_555
C8 O6 1_555 1_555
O4 Pr1A 1_555 1_555
O6B Pr1B 1_555 1_555
C1B O1B 1_555 1_555
C4B N1B 1_555 1_555
C5B C6B 1_555 1_555
O4B Pr1C_2 1_555 1_555

#END
