
#######################################################################
#
#                 Cambridge Crystallographic Data Centre
#                                CCDC 
#
#######################################################################
#
# If this CIF has been generated from an entry in the Cambridge 
# Structural Database, then it will include bibliographic, chemical, 
# crystal, experimental, refinement or atomic coordinate data resulting 
# from the CCDC's data processing and validation procedures.
#
#######################################################################

data_ZOHBIJ
_symmetry_cell_setting           monoclinic
_symmetry_space_group_name_H-M   'P 21/c'
_symmetry_Int_Tables_number      14
_space_group_name_Hall           '-P 2ybc'
loop_
_symmetry_equiv_pos_site_id
_symmetry_equiv_pos_as_xyz
1 x,y,z
2 -x,1/2+y,1/2-z
3 -x,-y,-z
4 x,1/2-y,1/2+z
_cell_length_a                   15.9131(14)
_cell_length_b                   13.5396(11)
_cell_length_c                   6.6475(6)
_cell_angle_alpha                90
_cell_angle_beta                 97.6620(10)
_cell_angle_gamma                90
_cell_volume                     1419.46
loop_
_atom_site_label
_atom_site_type_symbol
_atom_site_fract_x
_atom_site_fract_y
_atom_site_fract_z
Eu1 Eu 0.250875(17) 1.06030(2) 0.46874(4)
C1 C 0.3582(3) 0.8868(4) 0.5200(8)
C2 C 0.4134(3) 0.7962(4) 0.5551(7)
C3 C 0.3767(3) 0.7028(4) 0.5520(8)
H1 H 0.3179 0.6986 0.5250
C4 C 0.5049(3) 0.6265(4) 0.6200(7)
H2 H 0.5364 0.5688 0.6431
C5 C 0.5482(3) 0.7157(4) 0.6235(7)
C6 C 0.5010(3) 0.8027(4) 0.5924(7)
H3 H 0.5278 0.8638 0.5968
C7 C 0.6438(3) 0.7171(4) 0.6605(7)
C8 C 0.1009(4) 1.0496(5) 0.1700(11)
C9 C 0.0214(5) 1.0476(5) 0.0122(14)
H4 H -0.0184 1.0962 0.0504
H5 H 0.0371 1.0674 -0.1179
N1 N 0.4204(3) 0.6189(3) 0.5853(7)
O1 O 0.3891(3) 0.9699(3) 0.5617(6)
O2 O 0.2817(2) 0.8758(3) 0.4481(6)
O3 O 0.6807(2) 0.6373(3) 0.7114(6)
O4 O 0.6798(3) 0.7964(3) 0.6325(7)
O5 O 0.1128(3) 0.9880(3) 0.3095(8)
O6 O 0.1516(3) 1.1184(4) 0.1565(9)
O7 O 0.1994(3) 0.9707(3) 0.7597(6)
H6 H 0.1525 0.9955 0.7823
H7 H 0.2350 0.9778 0.8658
O8 O 0.3073(3) 1.0236(3) 0.1415(6)
H8 H 0.3596 1.0089 0.1667
H9 H 0.3014 1.0722 0.0675
O9 O 0.1469(3) 1.1816(4) 0.5778(10)
H10 H 0.1330 1.1636 0.6914
H11 H 0.1024 1.1826 0.4915
C8B C -0.1009(4) 0.9504(5) -0.1700(11)
C9B C -0.0214(5) 0.9524(5) -0.0122(14)
H4B H 0.0184 0.9038 -0.0504
H5B H -0.0371 0.9326 0.1179
O5B O -0.1128(3) 1.0120(3) -0.3095(8)
O6B O -0.1516(3) 0.8816(4) -0.1565(9)
Eu1B Eu -0.250875(17) 0.93970(2) -0.46874(4)
C1B C -0.3582(3) 1.1132(4) -0.5200(8)
C2B C -0.4134(3) 1.2038(4) -0.5551(7)
C3B C -0.3767(3) 1.2972(4) -0.5520(8)
H1B H -0.3179 1.3014 -0.5250
C4B C -0.5049(3) 1.3735(4) -0.6200(7)
H2B H -0.5364 1.4312 -0.6431
C5B C -0.5482(3) 1.2843(4) -0.6235(7)
C6B C -0.5010(3) 1.1973(4) -0.5924(7)
H3B H -0.5278 1.1362 -0.5968
C7B C -0.6438(3) 1.2829(4) -0.6605(7)
N1B N -0.4204(3) 1.3811(3) -0.5853(7)
O1B O -0.3891(3) 1.0301(3) -0.5617(6)
O2B O -0.2817(2) 1.1242(3) -0.4481(6)
O3B O -0.6807(2) 1.3627(3) -0.7114(6)
O4B O -0.6798(3) 1.2036(3) -0.6325(7)
O7B O -0.1994(3) 1.0293(3) -0.7597(6)
H6B H -0.1525 1.0045 -0.7823
H7B H -0.2350 1.0222 -0.8658
O8B O -0.3073(3) 0.9764(3) -0.1415(6)
H8B H -0.3596 0.9911 -0.1667
H9B H -0.3014 0.9278 -0.0675
O9B O -0.1469(3) 0.8184(4) -0.5778(10)
H10B H -0.1330 0.8364 -0.6914
H11B H -0.1024 0.8174 -0.4915
Eu1_2 Eu -0.749125(17) 1.06030(2) -0.53126(4)
Eu1A Eu 0.749125(17) 0.56030(2) 1.03126(4)
Eu1B_2 Eu 0.749125(17) 0.93970(2) 0.53126(4)
Eu1C Eu -0.749125(17) 1.43970(2) -1.03126(4)
O3A O 0.3193(2) 1.1373(3) 0.7886(6)
O3C O -0.3193(2) 0.8627(3) -0.7886(6)
O4_2 O -0.3202(3) 0.7964(3) -0.3675(7)
O4B_2 O 0.3202(3) 1.2036(3) 0.3675(7)
O10 O 0.1621(4) 0.7726(4) 0.8008(10)
H12 H 0.2037 0.7342 0.8354
H13 H 0.1190 0.7491 0.8471
O11 O -0.0278(4) 1.1639(5) 0.5083(11)
H14 H -0.0563 1.1742 0.3927
H15 H -0.0246 1.1020 0.5294
loop_
_geom_bond_atom_site_label_1
_geom_bond_atom_site_label_2
_geom_bond_site_symmetry_1
_geom_bond_site_symmetry_2
Eu1 O1 1_555 1_555
C1 C2 1_555 1_555
C2 C3 1_555 1_555
C3 H1 1_555 1_555
C4 H2 1_555 1_555
C5 C4 1_555 1_555
C6 C2 1_555 1_555
H3 C6 1_555 1_555
C7 C5 1_555 1_555
C8 C9 1_555 1_555
C9 H4 1_555 1_555
H5 C9 1_555 1_555
N1 C3 1_555 1_555
O1 C1 1_555 1_555
O2 Eu1 1_555 1_555
O3 C7 1_555 1_555
O4 C7 1_555 1_555
O5 Eu1 1_555 1_555
O6 Eu1 1_555 1_555
O7 Eu1 1_555 1_555
H6 O7 1_555 1_555
H7 O7 1_555 1_555
O8 Eu1 1_555 1_555
H8 O8 1_555 1_555
H9 O8 1_555 1_555
O9 Eu1 1_555 1_555
H10 O9 1_555 1_555
H11 O9 1_555 1_555
O10 H12 1_555 1_555
H13 O10 1_555 1_555
O11 H14 1_555 1_555
H15 O11 1_555 1_555
C8B C9B 1_555 1_555
C9B C9 1_555 1_555
H4B C9B 1_555 1_555
H5B C9B 1_555 1_555
O5B C8B 1_555 1_555
O6B C8B 1_555 1_555
Eu1B O5B 1_555 1_555
C1B C2B 1_555 1_555
C2B C3B 1_555 1_555
C3B H1B 1_555 1_555
C4B H2B 1_555 1_555
C5B C4B 1_555 1_555
C6B C2B 1_555 1_555
H3B C6B 1_555 1_555
C7B C5B 1_555 1_555
N1B C3B 1_555 1_555
O1B Eu1B 1_555 1_555
O2B Eu1B 1_555 1_555
O3B C7B 1_555 1_555
O4B C7B 1_555 1_555
O7B Eu1B 1_555 1_555
H6B O7B 1_555 1_555
H7B O7B 1_555 1_555
O8B Eu1B 1_555 1_555
H8B O8B 1_555 1_555
H9B O8B 1_555 1_555
O9B Eu1B 1_555 1_555
H10B O9B 1_555 1_555
H11B O9B 1_555 1_555
Eu1_2 O4B 1_555 1_555
Eu1A O3 1_555 1_555
Eu1B_2 O4 1_555 1_555
Eu1C O3B 1_555 1_555
O3A Eu1 1_555 1_555
O3C Eu1B 1_555 1_555
O4_2 Eu1B 1_555 1_555
O4B_2 Eu1 1_555 1_555
C1 O2 1_555 1_555
C4 N1 1_555 1_555
C5 C6 1_555 1_555
C8 O5 1_555 1_555
C8 O6 1_555 1_555
O6B Eu1B 1_555 1_555
C1B O1B 1_555 1_555
C1B O2B 1_555 1_555
C4B N1B 1_555 1_555
C5B C6B 1_555 1_555

#END
