
#######################################################################
#
#                 Cambridge Crystallographic Data Centre
#                                CCDC 
#
#######################################################################
#
# If this CIF has been generated from an entry in the Cambridge 
# Structural Database, then it will include bibliographic, chemical, 
# crystal, experimental, refinement or atomic coordinate data resulting 
# from the CCDC's data processing and validation procedures.
#
#######################################################################

data_ZOHFUZ
_symmetry_cell_setting           cubic
_symmetry_space_group_name_H-M   'F m -3 m'
_symmetry_Int_Tables_number      225
_space_group_name_Hall           '-F 4 2 3'
loop_
_symmetry_equiv_pos_site_id
_symmetry_equiv_pos_as_xyz
1 x,y,z
2 -y,x,z
3 -x,-y,z
4 y,-x,z
5 x,-z,y
6 x,-y,-z
7 x,z,-y
8 z,y,-x
9 -x,y,-z
10 -z,y,x
11 z,x,y
12 y,z,x
13 -y,-z,x
14 z,-x,-y
15 -y,z,-x
16 -z,-x,y
17 -z,x,-y
18 y,-z,-x
19 y,x,-z
20 -y,-x,-z
21 -x,z,y
22 -x,-z,-y
23 z,-y,x
24 -z,-y,-x
25 x,1/2+y,1/2+z
26 -y,1/2+x,1/2+z
27 -x,1/2-y,1/2+z
28 y,1/2-x,1/2+z
29 x,1/2-z,1/2+y
30 x,1/2-y,1/2-z
31 x,1/2+z,1/2-y
32 z,1/2+y,1/2-x
33 -x,1/2+y,1/2-z
34 -z,1/2+y,1/2+x
35 z,1/2+x,1/2+y
36 y,1/2+z,1/2+x
37 -y,1/2-z,1/2+x
38 z,1/2-x,1/2-y
39 -y,1/2+z,1/2-x
40 -z,1/2-x,1/2+y
41 -z,1/2+x,1/2-y
42 y,1/2-z,1/2-x
43 y,1/2+x,1/2-z
44 -y,1/2-x,1/2-z
45 -x,1/2+z,1/2+y
46 -x,1/2-z,1/2-y
47 z,1/2-y,1/2+x
48 -z,1/2-y,1/2-x
49 1/2+x,y,1/2+z
50 1/2-y,x,1/2+z
51 1/2-x,-y,1/2+z
52 1/2+y,-x,1/2+z
53 1/2+x,-z,1/2+y
54 1/2+x,-y,1/2-z
55 1/2+x,z,1/2-y
56 1/2+z,y,1/2-x
57 1/2-x,y,1/2-z
58 1/2-z,y,1/2+x
59 1/2+z,x,1/2+y
60 1/2+y,z,1/2+x
61 1/2-y,-z,1/2+x
62 1/2+z,-x,1/2-y
63 1/2-y,z,1/2-x
64 1/2-z,-x,1/2+y
65 1/2-z,x,1/2-y
66 1/2+y,-z,1/2-x
67 1/2+y,x,1/2-z
68 1/2-y,-x,1/2-z
69 1/2-x,z,1/2+y
70 1/2-x,-z,1/2-y
71 1/2+z,-y,1/2+x
72 1/2-z,-y,1/2-x
73 1/2+x,1/2+y,z
74 1/2-y,1/2+x,z
75 1/2-x,1/2-y,z
76 1/2+y,1/2-x,z
77 1/2+x,1/2-z,y
78 1/2+x,1/2-y,-z
79 1/2+x,1/2+z,-y
80 1/2+z,1/2+y,-x
81 1/2-x,1/2+y,-z
82 1/2-z,1/2+y,x
83 1/2+z,1/2+x,y
84 1/2+y,1/2+z,x
85 1/2-y,1/2-z,x
86 1/2+z,1/2-x,-y
87 1/2-y,1/2+z,-x
88 1/2-z,1/2-x,y
89 1/2-z,1/2+x,-y
90 1/2+y,1/2-z,-x
91 1/2+y,1/2+x,-z
92 1/2-y,1/2-x,-z
93 1/2-x,1/2+z,y
94 1/2-x,1/2-z,-y
95 1/2+z,1/2-y,x
96 1/2-z,1/2-y,-x
97 -x,-y,-z
98 y,-x,-z
99 x,y,-z
100 -y,x,-z
101 -x,z,-y
102 -x,y,z
103 -x,-z,y
104 -z,-y,x
105 x,-y,z
106 z,-y,-x
107 -z,-x,-y
108 -y,-z,-x
109 y,z,-x
110 -z,x,y
111 y,-z,x
112 z,x,-y
113 z,-x,y
114 -y,z,x
115 -y,-x,z
116 y,x,z
117 x,-z,-y
118 x,z,y
119 -z,y,-x
120 z,y,x
121 -x,1/2-y,1/2-z
122 y,1/2-x,1/2-z
123 x,1/2+y,1/2-z
124 -y,1/2+x,1/2-z
125 -x,1/2+z,1/2-y
126 -x,1/2+y,1/2+z
127 -x,1/2-z,1/2+y
128 -z,1/2-y,1/2+x
129 x,1/2-y,1/2+z
130 z,1/2-y,1/2-x
131 -z,1/2-x,1/2-y
132 -y,1/2-z,1/2-x
133 y,1/2+z,1/2-x
134 -z,1/2+x,1/2+y
135 y,1/2-z,1/2+x
136 z,1/2+x,1/2-y
137 z,1/2-x,1/2+y
138 -y,1/2+z,1/2+x
139 -y,1/2-x,1/2+z
140 y,1/2+x,1/2+z
141 x,1/2-z,1/2-y
142 x,1/2+z,1/2+y
143 -z,1/2+y,1/2-x
144 z,1/2+y,1/2+x
145 1/2-x,-y,1/2-z
146 1/2+y,-x,1/2-z
147 1/2+x,y,1/2-z
148 1/2-y,x,1/2-z
149 1/2-x,z,1/2-y
150 1/2-x,y,1/2+z
151 1/2-x,-z,1/2+y
152 1/2-z,-y,1/2+x
153 1/2+x,-y,1/2+z
154 1/2+z,-y,1/2-x
155 1/2-z,-x,1/2-y
156 1/2-y,-z,1/2-x
157 1/2+y,z,1/2-x
158 1/2-z,x,1/2+y
159 1/2+y,-z,1/2+x
160 1/2+z,x,1/2-y
161 1/2+z,-x,1/2+y
162 1/2-y,z,1/2+x
163 1/2-y,-x,1/2+z
164 1/2+y,x,1/2+z
165 1/2+x,-z,1/2-y
166 1/2+x,z,1/2+y
167 1/2-z,y,1/2-x
168 1/2+z,y,1/2+x
169 1/2-x,1/2-y,-z
170 1/2+y,1/2-x,-z
171 1/2+x,1/2+y,-z
172 1/2-y,1/2+x,-z
173 1/2-x,1/2+z,-y
174 1/2-x,1/2+y,z
175 1/2-x,1/2-z,y
176 1/2-z,1/2-y,x
177 1/2+x,1/2-y,z
178 1/2+z,1/2-y,-x
179 1/2-z,1/2-x,-y
180 1/2-y,1/2-z,-x
181 1/2+y,1/2+z,-x
182 1/2-z,1/2+x,y
183 1/2+y,1/2-z,x
184 1/2+z,1/2+x,-y
185 1/2+z,1/2-x,y
186 1/2-y,1/2+z,x
187 1/2-y,1/2-x,z
188 1/2+y,1/2+x,z
189 1/2+x,1/2-z,-y
190 1/2+x,1/2+z,y
191 1/2-z,1/2+y,-x
192 1/2+z,1/2+y,x
_cell_length_a                   26.669(17)
_cell_length_b                   26.669(17)
_cell_length_c                   26.669(17)
_cell_angle_alpha                90
_cell_angle_beta                 90
_cell_angle_gamma                90
_cell_volume                     18967.9
loop_
_atom_site_label
_atom_site_type_symbol
_atom_site_fract_x
_atom_site_fract_y
_atom_site_fract_z
Cl1 Cl 0.0000 0.434(3) 0.0000
C1 C 0.2000(4) 0.3000(4) 0.0695(5)
C2 C 0.1790(4) 0.3210(4) 0.1138(5)
Fe1 Fe 0.21063(7) 0.21063(7) 0.0000
O1 O 0.1826(4) 0.2573(3) 0.0533(3)
C3 C 0.1975(7) 0.3658(4) 0.1342(4)
H1 H 0.2230 0.3825 0.1175
O2 O 0.1488(4) 0.1488(4) 0.0000
C1KA C 0.0695(5) 0.3000(4) 0.2000(4)
C2KA C 0.1138(5) 0.3210(4) 0.1790(4)
O1KA O 0.0533(3) 0.3174(4) 0.2427(3)
C3KA C 0.1342(4) 0.3025(7) 0.1342(4)
H1KA H 0.1175 0.2770 0.1175
C1FC C 0.2000(4) 0.4305(5) 0.2000(4)
C2FC C 0.1790(4) 0.3862(5) 0.1790(4)
O1FC O 0.2427(3) 0.4467(3) 0.1826(4)
C3FC C 0.1342(4) 0.3658(4) 0.1975(7)
H1FC H 0.1175 0.3825 0.2230
O1OD O 0.0533(3) 0.2573(3) 0.1826(4)
O1JE O 0.1826(4) 0.4467(3) 0.2427(3)
O1DG O 0.2427(3) 0.3174(4) 0.0533(3)
C1G C 0.0695(5) 0.3000(4) -0.2000(4)
C2G C 0.1138(5) 0.3210(4) -0.1790(4)
Fe1G Fe 0.0000 0.21063(7) -0.21063(7)
O1G O 0.0533(3) 0.2573(3) -0.1826(4)
C3G C 0.1342(4) 0.3658(4) -0.1975(7)
H1G H 0.1175 0.3825 -0.2230
O2G O 0.0000 0.1488(4) -0.1488(4)
C1MC C 0.2000(4) 0.3000(4) -0.0695(5)
C2MC C 0.1790(4) 0.3210(4) -0.1138(5)
O1MC O 0.2427(3) 0.3174(4) -0.0533(3)
C3MC C 0.1342(4) 0.3025(7) -0.1342(4)
H1MC H 0.1175 0.2770 -0.1175
C1BA C 0.2000(4) 0.4305(5) -0.2000(4)
C2BA C 0.1790(4) 0.3862(5) -0.1790(4)
O1BA O 0.1826(4) 0.4467(3) -0.2427(3)
C3BA C 0.1975(7) 0.3658(4) -0.1342(4)
H1BA H 0.2230 0.3825 -0.1175
O1TC O 0.1826(4) 0.2573(3) -0.0533(3)
O1WF O 0.2427(3) 0.4467(3) -0.1826(4)
O1FE O 0.0533(3) 0.3174(4) -0.2427(3)
Fe1I Fe 0.0000 0.21063(7) 0.21063(7)
O2I O 0.0000 0.1488(4) 0.1488(4)
Fe1BA Fe 0.21063(7) 0.5000 -0.28937(7)
Fe1DA Fe 0.21063(7) 0.5000 0.28937(7)
Fe1KA Fe 0.0000 0.28937(7) 0.28937(7)
Fe1MA Fe 0.0000 0.28937(7) -0.28937(7)
Fe1VB Fe 0.28937(7) 0.28937(7) 0.0000
Fe1FC Fe 0.28937(7) 0.5000 0.21063(7)
Fe1HC Fe 0.28937(7) 0.5000 -0.21063(7)
O1I O -0.0533(3) 0.2573(3) 0.1826(4)
O1J O 0.0533(3) 0.1826(4) 0.2573(3)
O1P O -0.0533(3) 0.1826(4) -0.2573(3)
O1R O 0.2573(3) 0.1826(4) -0.0533(3)
O1ED O -0.0533(3) 0.1826(4) 0.2573(3)
O1GD O 0.0533(3) 0.1826(4) -0.2573(3)
O1KD O 0.2573(3) 0.1826(4) 0.0533(3)
O1ND O -0.0533(3) 0.2573(3) -0.1826(4)
Cl2? Cl 0.055(3) 0.0000 0.0000
loop_
_geom_bond_atom_site_label_1
_geom_bond_atom_site_label_2
_geom_bond_site_symmetry_1
_geom_bond_site_symmetry_2
C1 C2 1_555 1_555
C2 C3 1_555 1_555
Fe1 O1 1_555 1_555
O1 C1 1_555 1_555
C3 H1 1_555 1_555
O2 Fe1 1_555 1_555
C1KA C2KA 1_555 1_555
C2KA C3KA 1_555 1_555
O1KA C1KA 1_555 1_555
C3KA C2 1_555 1_555
H1KA C3KA 1_555 1_555
C1FC C2FC 1_555 1_555
C2FC C3 1_555 1_555
O1FC C1FC 1_555 1_555
C3FC C2KA 1_555 1_555
H1FC C3FC 1_555 1_555
O1OD C1KA 1_555 1_555
O1JE C1FC 1_555 1_555
O1DG C1 1_555 1_555
C1G C2G 1_555 1_555
C2G C3G 1_555 1_555
Fe1G O1G 1_555 1_555
O1G C1G 1_555 1_555
C3G H1G 1_555 1_555
O2G Fe1G 1_555 1_555
C1MC C2MC 1_555 1_555
C2MC C3MC 1_555 1_555
O1MC C1MC 1_555 1_555
C3MC C2G 1_555 1_555
H1MC C3MC 1_555 1_555
C1BA C2BA 1_555 1_555
C2BA C3G 1_555 1_555
O1BA C1BA 1_555 1_555
C3BA C2MC 1_555 1_555
H1BA C3BA 1_555 1_555
O1TC Fe1 1_555 1_555
O1WF C1BA 1_555 1_555
O1FE C1G 1_555 1_555
Fe1I O1OD 1_555 1_555
O2I Fe1I 1_555 1_555
Fe1BA O1BA 1_555 1_555
Fe1DA O1JE 1_555 1_555
Fe1KA O1KA 1_555 1_555
Fe1MA Fe1G 1_555 1_555
Fe1VB Fe1 1_555 1_555
Fe1FC O1FC 1_555 1_555
Fe1HC O1WF 1_555 1_555
O1I Fe1I 1_555 1_555
O1J Fe1I 1_555 1_555
O1P Fe1G 1_555 1_555
O1R Fe1 1_555 1_555
O1ED Fe1I 1_555 1_555
O1GD Fe1G 1_555 1_555
O1KD Fe1 1_555 1_555
O1ND Fe1G 1_555 1_555
C2FC C3FC 1_555 1_555
O1DG Fe1VB 1_555 1_555
C1MC O1TC 1_555 1_555
O1MC Fe1VB 1_555 1_555
C2BA C3BA 1_555 1_555
O1FE Fe1MA 1_555 1_555
Fe1I Fe1KA 1_555 1_555
Fe1BA Fe1HC 1_555 1_555
Fe1DA Fe1FC 1_555 1_555

#END
