
#######################################################################
#
#                 Cambridge Crystallographic Data Centre
#                                CCDC 
#
#######################################################################
#
# If this CIF has been generated from an entry in the Cambridge 
# Structural Database, then it will include bibliographic, chemical, 
# crystal, experimental, refinement or atomic coordinate data resulting 
# from the CCDC's data processing and validation procedures.
#
#######################################################################

data_ZOHQEU
_symmetry_cell_setting           monoclinic
_symmetry_space_group_name_H-M   'C 2/c'
_symmetry_Int_Tables_number      15
_space_group_name_Hall           '-C 2yn'
loop_
_symmetry_equiv_pos_site_id
_symmetry_equiv_pos_as_xyz
1 x,y,z
2 -x,y,1/2-z
3 1/2+x,1/2+y,z
4 1/2-x,1/2+y,1/2-z
5 -x,-y,-z
6 x,-y,1/2+z
7 1/2-x,1/2-y,-z
8 1/2+x,1/2-y,1/2+z
_cell_length_a                   19.652(5)
_cell_length_b                   11.540(5)
_cell_length_c                   27.611(5)
_cell_angle_alpha                90
_cell_angle_beta                 107.031(5)
_cell_angle_gamma                90
_cell_volume                     5987.14
loop_
_atom_site_label
_atom_site_type_symbol
_atom_site_fract_x
_atom_site_fract_y
_atom_site_fract_z
C1 C 1.04231(11) 0.02127(19) 0.69602(8)
H1 H 1.0624 0.0944 0.7041
C2 C 1.07952(12) -0.0730(2) 0.72004(8)
H2 H 1.1233 -0.0635 0.7443
C3 C 1.05121(12) -0.18294(19) 0.70777(8)
C4 C 0.98487(13) -0.1922(2) 0.67157(9)
H3 H 0.9641 -0.2644 0.6622
C5 C 0.95066(12) -0.09269(19) 0.64992(8)
H4 H 0.9062 -0.0995 0.6262
C6 C 1.08888(14) -0.2874(2) 0.73131(9)
C7 C 1.23319(15) -0.3794(2) 0.81986(10)
C8 C 1.27458(13) -0.4822(2) 0.84159(9)
C9 C 1.33544(14) -0.4683(2) 0.88230(11)
H5 H 1.3479 -0.3956 0.8967
C10 C 1.37714(15) -0.5637(3) 0.90104(11)
H6 H 1.4179 -0.5531 0.9281
C11 C 1.30285(15) -0.6830(2) 0.84374(12)
H7 H 1.2913 -0.7570 0.8306
C12 C 1.25797(13) -0.5929(2) 0.82245(10)
H8 H 1.2172 -0.6063 0.7957
C13 C 0.79652(12) 0.31189(19) 0.56381(9)
H9 H 0.7745 0.2400 0.5618
C14 C 0.75678(12) 0.4042(2) 0.53852(9)
H10 H 0.7095 0.3936 0.5197
C15 C 0.78786(12) 0.51217(19) 0.54150(8)
C16 C 0.85881(13) 0.5227(2) 0.56946(10)
H11 H 0.8817 0.5939 0.5722
C17 C 0.89500(12) 0.4257(2) 0.59312(10)
H12 H 0.9427 0.4336 0.6115
C18 C 0.74592(13) 0.6112(2) 0.51499(9)
C19 C 0.79927(10) 0.06671(17) 0.65832(8)
C20 C 0.73533(10) -0.01271(18) 0.64469(8)
C21 C 0.71531(12) -0.0686(2) 0.59811(9)
H13 H 0.7418 -0.0576 0.5755
C22 C 0.65645(13) -0.1406(2) 0.58488(9)
H14 H 0.6438 -0.1779 0.5537
C23 C 0.61621(10) -0.15739(18) 0.61804(8)
C24 C 0.63642(12) -0.1023(2) 0.66467(9)
H15 H 0.6101 -0.1137 0.6873
C25 C 0.69553(12) -0.0303(2) 0.67787(9)
H16 H 0.7085 0.0063 0.7092
C26 C 0.55121(10) -0.23450(18) 0.60284(8)
N1 N 0.97809(9) 0.01327(15) 0.66133(7)
N2 N 1.14422(12) -0.27940(19) 0.76864(8)
N3 N 1.17362(12) -0.38803(19) 0.78592(8)
N4 N 1.36223(13) -0.6695(2) 0.88246(10)
N5 N 0.86475(10) 0.32059(15) 0.59089(7)
N6 N 0.77450(11) 0.70912(18) 0.51429(8)
O1 O 0.82844(7) 0.08459(13) 0.62368(6)
O2 O 0.81840(9) 0.10900(16) 0.70162(6)
O3 O 0.91602(8) 0.10374(15) 0.55280(6)
H17 H 0.8725 0.1073 0.5331
H18 H 0.9300 0.0320 0.5543
O4 O 0.53540(9) -0.28110(18) 0.56033(7)
O5 O 0.93229(8) 0.22905(14) 0.70310(6)
H19 H 0.8983 0.2012 0.7141
H20 H 0.9297 0.3045 0.7035
O6 O 0.51704(7) -0.24620(13) 0.63467(6)
Co1 Co 0.92241(2) 0.16702(2) 0.62711(2)
H21 H 1.0692(16) -0.361(3) 0.7176(11)
H22 H 1.2557(19) -0.307(3) 0.8276(13)
H23 H 0.6926(18) 0.593(3) 0.4956(12)
C13F C 0.70348(12) 1.18811(19) 0.43619(9)
H9F H 0.7255 1.2600 0.4382
C14F C 0.74322(12) 1.0958(2) 0.46148(9)
H10F H 0.7905 1.1064 0.4803
C15F C 0.71214(12) 0.98783(19) 0.45850(8)
C16F C 0.64119(13) 0.9773(2) 0.43054(10)
H11F H 0.6183 0.9061 0.4278
C17F C 0.60500(12) 1.0743(2) 0.40688(10)
H12F H 0.5573 1.0664 0.3885
C18F C 0.75408(13) 0.8888(2) 0.48501(9)
N5F N 0.63525(10) 1.17941(15) 0.40911(7)
N6F N 0.72550(11) 0.79088(18) 0.48571(8)
H23F H 0.8074(18) 0.907(3) 0.5044(12)
C1F C 0.45769(11) 1.47873(19) 0.30398(8)
H1F H 0.4376 1.4056 0.2959
C2F C 0.42048(12) 1.5730(2) 0.27996(8)
H2F H 0.3767 1.5635 0.2557
C3F C 0.44879(12) 1.68294(19) 0.29223(8)
C4F C 0.51513(13) 1.6922(2) 0.32843(9)
H3F H 0.5359 1.7644 0.3378
C5F C 0.54934(12) 1.59269(19) 0.35008(8)
H4F H 0.5938 1.5995 0.3738
C6F C 0.41112(14) 1.7874(2) 0.26869(9)
C7F C 0.26681(15) 1.8794(2) 0.18014(10)
C8F C 0.22542(13) 1.9822(2) 0.15841(9)
C9F C 0.16456(14) 1.9683(2) 0.11770(11)
H5F H 0.1521 1.8956 0.1033
C10F C 0.12286(15) 2.0637(3) 0.09896(11)
H6F H 0.0821 2.0531 0.0719
C11F C 0.19715(15) 2.1830(2) 0.15626(12)
H7F H 0.2087 2.2570 0.1694
C12F C 0.24203(13) 2.0929(2) 0.17755(10)
H8F H 0.2828 2.1063 0.2043
C19F C 0.70073(10) 1.43329(17) 0.34168(8)
C20F C 0.76467(10) 1.51271(18) 0.35531(8)
C21F C 0.78469(12) 1.5686(2) 0.40189(9)
H13F H 0.7582 1.5576 0.4245
C22F C 0.84355(13) 1.6406(2) 0.41512(9)
H14F H 0.8562 1.6779 0.4463
C23F C 0.88379(10) 1.65739(18) 0.38196(8)
C24F C 0.86358(12) 1.6023(2) 0.33533(9)
H15F H 0.8899 1.6137 0.3127
C25F C 0.80447(12) 1.5303(2) 0.32213(9)
H16F H 0.7915 1.4937 0.2908
C26F C 0.94879(10) 1.73450(18) 0.39716(8)
N1F N 0.52191(9) 1.48673(15) 0.33867(7)
N2F N 0.35578(12) 1.77940(19) 0.23136(8)
N3F N 0.32638(12) 1.88803(19) 0.21408(8)
N4F N 0.13777(13) 2.1695(2) 0.11754(10)
O1F O 0.67156(7) 1.41541(13) 0.37632(6)
O2F O 0.68160(9) 1.39100(16) 0.29838(6)
O3F O 0.58398(8) 1.39626(15) 0.44720(6)
H17F H 0.6275 1.3927 0.4669
H18F H 0.5700 1.4680 0.4457
O4F O 0.96460(9) 1.78110(18) 0.43967(7)
O5F O 0.56771(8) 1.27095(14) 0.29690(6)
H19F H 0.6017 1.2988 0.2859
H20F H 0.5703 1.1955 0.2965
O6F O 0.98296(7) 1.74620(13) 0.36533(6)
Co1F Co 0.57759(2) 1.33298(2) 0.37289(2)
H21F H 0.4308(16) 1.861(3) 0.2824(11)
H22F H 0.2443(19) 1.807(3) 0.1724(13)
O6B O 1.01704(7) 0.25380(13) 0.63467(6)
O6D O 0.48296(7) 1.24620(13) 0.36533(6)
Co1B Co 0.42241(2) -0.33298(2) 0.62711(2)
Co1D Co 1.07759(2) 1.83298(2) 0.37289(2)
C27 C 1.4660(3) -0.8878(4) 0.95441(17)
H25 H 1.4647 -0.9664 0.9428
H26 H 1.4207 -0.8676 0.9587
H27 H 1.5023 -0.8800 0.9862
O7 O 1.48091(13) -0.8145(2) 0.91909(10)
H28 H 1.4446 -0.7798 0.9037
O8 O 0.55999(11) -0.37576(17) 0.47283(8)
H29 H 0.5403 -0.3190 0.4544
H30 H 0.5626 -0.3616 0.5035
O9 O 0.94164(15) 0.4653(2) 0.71045(13)
H24? H 0.952(2) 0.137(3) 0.5500(12)
loop_
_geom_bond_atom_site_label_1
_geom_bond_atom_site_label_2
_geom_bond_site_symmetry_1
_geom_bond_site_symmetry_2
C1 H1 1_555 1_555
C2 C1 1_555 1_555
H2 C2 1_555 1_555
C3 C2 1_555 1_555
C4 C3 1_555 1_555
H3 C4 1_555 1_555
C5 C4 1_555 1_555
H4 C5 1_555 1_555
C6 C3 1_555 1_555
C7 C8 1_555 1_555
C8 C9 1_555 1_555
C9 H5 1_555 1_555
C10 C9 1_555 1_555
H6 C10 1_555 1_555
C11 H7 1_555 1_555
C12 C8 1_555 1_555
H8 C12 1_555 1_555
C13 H9 1_555 1_555
C14 C13 1_555 1_555
H10 C14 1_555 1_555
C15 C14 1_555 1_555
C16 C15 1_555 1_555
H11 C16 1_555 1_555
C17 C16 1_555 1_555
H12 C17 1_555 1_555
C18 C15 1_555 1_555
C19 C20 1_555 1_555
C20 C21 1_555 1_555
C21 H13 1_555 1_555
C22 C21 1_555 1_555
H14 C22 1_555 1_555
C23 C22 1_555 1_555
C24 C23 1_555 1_555
H15 C24 1_555 1_555
C25 C20 1_555 1_555
H16 C25 1_555 1_555
C26 C23 1_555 1_555
N1 C1 1_555 1_555
N2 C6 1_555 1_555
N3 C7 1_555 1_555
N4 C10 1_555 1_555
N5 C13 1_555 1_555
N6 C18 1_555 1_555
O1 C19 1_555 1_555
O2 C19 1_555 1_555
O3 H17 1_555 1_555
H18 O3 1_555 1_555
O4 C26 1_555 1_555
O5 H19 1_555 1_555
H20 O5 1_555 1_555
O6 C26 1_555 1_555
Co1 N1 1_555 1_555
H21 C6 1_555 1_555
H22 C7 1_555 1_555
H23 C18 1_555 1_555
C27 H25 1_555 1_555
H26 C27 1_555 1_555
H27 C27 1_555 1_555
O7 C27 1_555 1_555
H28 O7 1_555 1_555
O8 H29 1_555 1_555
H30 O8 1_555 1_555
C13F H9F 1_555 1_555
C14F C13F 1_555 1_555
H10F C14F 1_555 1_555
C15F C14F 1_555 1_555
C16F C15F 1_555 1_555
H11F C16F 1_555 1_555
C17F C16F 1_555 1_555
H12F C17F 1_555 1_555
C18F C15F 1_555 1_555
N5F C13F 1_555 1_555
N6F N6 1_555 1_555
H23F C18F 1_555 1_555
C1F H1F 1_555 1_555
C2F C1F 1_555 1_555
H2F C2F 1_555 1_555
C3F C2F 1_555 1_555
C4F C3F 1_555 1_555
H3F C4F 1_555 1_555
C5F C4F 1_555 1_555
H4F C5F 1_555 1_555
C6F C3F 1_555 1_555
C7F C8F 1_555 1_555
C8F C9F 1_555 1_555
C9F H5F 1_555 1_555
C10F C9F 1_555 1_555
H6F C10F 1_555 1_555
C11F H7F 1_555 1_555
C12F C8F 1_555 1_555
H8F C12F 1_555 1_555
C19F C20F 1_555 1_555
C20F C21F 1_555 1_555
C21F H13F 1_555 1_555
C22F C21F 1_555 1_555
H14F C22F 1_555 1_555
C23F C22F 1_555 1_555
C24F C23F 1_555 1_555
H15F C24F 1_555 1_555
C25F C20F 1_555 1_555
H16F C25F 1_555 1_555
C26F C23F 1_555 1_555
N1F C1F 1_555 1_555
N2F C6F 1_555 1_555
N3F C7F 1_555 1_555
N4F C10F 1_555 1_555
O1F C19F 1_555 1_555
O2F C19F 1_555 1_555
O3F H17F 1_555 1_555
H18F O3F 1_555 1_555
O4F C26F 1_555 1_555
O5F H19F 1_555 1_555
H20F O5F 1_555 1_555
O6F C26F 1_555 1_555
Co1F N5F 1_555 1_555
H21F C6F 1_555 1_555
H22F C7F 1_555 1_555
O6B Co1 1_555 1_555
O6D Co1F 1_555 1_555
Co1B O6 1_555 1_555
Co1D O6F 1_555 1_555
C5 N1 1_555 1_555
C11 C12 1_555 1_555
C11 N4 1_555 1_555
C17 N5 1_555 1_555
C24 C25 1_555 1_555
N2 N3 1_555 1_555
N5 Co1 1_555 1_555
O1 Co1 1_555 1_555
O3 Co1 1_555 1_555
O5 Co1 1_555 1_555
C17F N5F 1_555 1_555
C18F N6F 1_555 1_555
C5F N1F 1_555 1_555
C11F C12F 1_555 1_555
C11F N4F 1_555 1_555
C24F C25F 1_555 1_555
N1F Co1F 1_555 1_555
N2F N3F 1_555 1_555
O1F Co1F 1_555 1_555
O3F Co1F 1_555 1_555
O5F Co1F 1_555 1_555

#END
