
#######################################################################
#
#                 Cambridge Crystallographic Data Centre
#                                CCDC 
#
#######################################################################
#
# If this CIF has been generated from an entry in the Cambridge 
# Structural Database, then it will include bibliographic, chemical, 
# crystal, experimental, refinement or atomic coordinate data resulting 
# from the CCDC's data processing and validation procedures.
#
#######################################################################

data_ZOHSUM
_symmetry_cell_setting           monoclinic
_symmetry_space_group_name_H-M   'P 21/c'
_symmetry_Int_Tables_number      14
_space_group_name_Hall           '-P 2ybc'
loop_
_symmetry_equiv_pos_site_id
_symmetry_equiv_pos_as_xyz
1 x,y,z
2 -x,1/2+y,1/2-z
3 -x,-y,-z
4 x,1/2-y,1/2+z
_cell_length_a                   8.6818(5)
_cell_length_b                   17.1961(9)
_cell_length_c                   12.8662(7)
_cell_angle_alpha                90
_cell_angle_beta                 96.9060(10)
_cell_angle_gamma                90
_cell_volume                     1906.9
loop_
_atom_site_label
_atom_site_type_symbol
_atom_site_fract_x
_atom_site_fract_y
_atom_site_fract_z
Cd1 Cd 0.211881(18) 0.490476(10) 0.504960(12)
As1 As 0.53591(3) 1.007003(13) 0.212562(18)
As2 As 0.00134(3) -0.050327(13) 0.768683(17)
O1 O 0.6579(2) 0.97950(11) 0.13221(14)
O2 O 0.36755(19) 1.04213(10) 0.15377(12)
O3 O 0.61019(19) 1.08251(10) 0.29065(13)
H1 H 0.6990 1.0939 0.2757
O4 O -0.00598(19) -0.02363(10) 0.89326(12)
O5 O 0.12375(19) -0.12097(10) 0.74807(13)
O6 O -0.17918(19) -0.08830(10) 0.72373(12)
H2 H -0.2442 -0.0738 0.7631
N1 N 0.2861(3) 0.62188(12) 0.52620(16)
N2 N 0.2181(3) 0.67382(14) 0.58771(19)
N3 N 0.3574(2) 0.73873(12) 0.48480(15)
N4 N 0.1889(3) 0.35574(12) 0.48382(16)
N5 N 0.2159(3) 0.31179(14) 0.39893(18)
N6 N 0.1308(2) 0.23557(12) 0.51610(15)
C1 C 0.3678(4) 0.66196(16) 0.4667(2)
H3 H 0.4272 0.6398 0.4168
C2 C 0.2613(4) 0.74240(17) 0.5612(2)
H4 H 0.2299 0.7894 0.5912
C3 C 0.4129(3) 0.80167(14) 0.42605(18)
C4 C 0.3883(3) 0.87734(16) 0.4560(2)
H5 H 0.3450 0.8876 0.5190
C5 C 0.4271(3) 0.93834(15) 0.3935(2)
H6 H 0.4073 0.9904 0.4126
C6 C 0.4944(3) 0.92352(14) 0.30371(18)
C7 C 0.5267(3) 0.84797(16) 0.2771(2)
H7 H 0.5783 0.8380 0.2174
C8 C 0.4835(3) 0.78638(16) 0.3376(2)
H8 H 0.5025 0.7343 0.3182
C9 C 0.1394(4) 0.30887(15) 0.5516(2)
H9 H 0.1127 0.3245 0.6180
C10 C 0.1794(4) 0.24070(17) 0.4202(2)
H10 H 0.1861 0.1979 0.3744
C11 C 0.0908(3) 0.16777(14) 0.57124(18)
C12 C 0.0059(3) 0.17575(15) 0.6557(2)
H11 H -0.0326 0.2252 0.6730
C13 C -0.0216(3) 0.11079(15) 0.71394(19)
H12 H -0.0774 0.1154 0.7728
C14 C 0.0329(3) 0.03880(14) 0.68582(18)
C15 C 0.1127(3) 0.03115(14) 0.59913(18)
H13 H 0.1467 -0.0186 0.5794
C16 C 0.1425(3) 0.09611(14) 0.54154(18)
H14 H 0.1978 0.0915 0.4824
Cd1A Cd -0.211881(18) -0.009524(10) 0.995040(12)
Cd1A_2 Cd 0.788119(18) 0.990476(10) -0.004960(12)
Cd1C Cd 0.211881(18) 0.009524(10) 1.004960(12)
Cd1C_2 Cd 0.211881(18) 1.009524(10) 0.004960(12)
O1A O 0.3421(2) 0.47950(11) 0.36779(14)
O2C O 0.36755(19) 0.45787(10) 0.65377(12)
O4A O 0.00598(19) 0.47637(10) 0.60674(12)
O4C O -0.00598(19) 0.52363(10) 0.39326(12)
loop_
_geom_bond_atom_site_label_1
_geom_bond_atom_site_label_2
_geom_bond_site_symmetry_1
_geom_bond_site_symmetry_2
Cd1 N1 1_555 1_555
As1 O1 1_555 1_555
As2 O4 1_555 1_555
O1 Cd1A_2 1_555 1_555
O2 As1 1_555 1_555
O3 As1 1_555 1_555
H1 O3 1_555 1_555
O4 Cd1A 1_555 1_555
O5 As2 1_555 1_555
O6 As2 1_555 1_555
H2 O6 1_555 1_555
N1 N2 1_555 1_555
N2 C2 1_555 1_555
N3 C1 1_555 1_555
N4 Cd1 1_555 1_555
N5 N4 1_555 1_555
N6 C9 1_555 1_555
C1 N1 1_555 1_555
H3 C1 1_555 1_555
C2 N3 1_555 1_555
H4 C2 1_555 1_555
C3 N3 1_555 1_555
C4 C3 1_555 1_555
H5 C4 1_555 1_555
C5 C4 1_555 1_555
H6 C5 1_555 1_555
C6 As1 1_555 1_555
C7 C6 1_555 1_555
H7 C7 1_555 1_555
C8 C3 1_555 1_555
H8 C8 1_555 1_555
C9 N4 1_555 1_555
H9 C9 1_555 1_555
C10 N5 1_555 1_555
H10 C10 1_555 1_555
C11 N6 1_555 1_555
C12 C11 1_555 1_555
H11 C12 1_555 1_555
C13 C12 1_555 1_555
H12 C13 1_555 1_555
C14 As2 1_555 1_555
C15 C14 1_555 1_555
H13 C15 1_555 1_555
C16 C11 1_555 1_555
H14 C16 1_555 1_555
Cd1C O4 1_555 1_555
Cd1C_2 O2 1_555 1_555
O1A Cd1 1_555 1_555
O2C Cd1 1_555 1_555
O4A Cd1 1_555 1_555
O4C Cd1 1_555 1_555
N6 C10 1_555 1_555
C5 C6 1_555 1_555
C7 C8 1_555 1_555
C13 C14 1_555 1_555
C15 C16 1_555 1_555

#END
