
#######################################################################
#
#                 Cambridge Crystallographic Data Centre
#                                CCDC 
#
#######################################################################
#
# If this CIF has been generated from an entry in the Cambridge 
# Structural Database, then it will include bibliographic, chemical, 
# crystal, experimental, refinement or atomic coordinate data resulting 
# from the CCDC's data processing and validation procedures.
#
#######################################################################

data_ZOHSIA
_symmetry_cell_setting           monoclinic
_symmetry_space_group_name_H-M   'C 2/m'
_symmetry_Int_Tables_number      12
_space_group_name_Hall           '-C 2y'
loop_
_symmetry_equiv_pos_site_id
_symmetry_equiv_pos_as_xyz
1 x,y,z
2 -x,y,-z
3 1/2+x,1/2+y,z
4 1/2-x,1/2+y,-z
5 -x,-y,-z
6 x,-y,z
7 1/2-x,1/2-y,-z
8 1/2+x,1/2-y,z
_cell_length_a                   20.875(4)
_cell_length_b                   7.6129(15)
_cell_length_c                   8.5776(17)
_cell_angle_alpha                90
_cell_angle_beta                 101.41(3)
_cell_angle_gamma                90
_cell_volume                     1336.21
loop_
_atom_site_label
_atom_site_type_symbol
_atom_site_fract_x
_atom_site_fract_y
_atom_site_fract_z
As1 As 0.31989(2) 0.0000 0.30944(6)
Co1 Co 0.2500 0.2500 0.0000
Cl1 Cl 0.17284(6) 0.0000 -0.03488(17)
O1 O 0.28341(13) 0.1850(3) 0.2345(3)
O2 O 0.32502(19) 0.0000 0.5114(4)
H1 H 0.2872 0.0000 0.5315
N1 N 0.67938(15) -0.0899(4) 0.0799(4)
N2 N 0.5936(2) 0.0000 0.1657(5)
C1 C 0.4095(2) 0.0000 0.2866(7)
C2 C 0.4397(3) 0.1550(7) 0.2698(9)
H2 H 0.4185 0.2629 0.2828
C3 C 0.5019(3) 0.1551(7) 0.2334(9)
H3 H 0.5230 0.2630 0.2199
C4 C 0.5321(3) 0.0000 0.2175(7)
C5 C 0.6282(2) -0.1399(6) 0.1322(6)
H4 H 0.6165 -0.2589 0.1451
O1E O 0.28341(13) -0.1850(3) 0.2345(3)
N1E N 0.67938(15) 0.0899(4) 0.0799(4)
C2E C 0.4397(3) -0.1550(7) 0.2698(9)
H2E H 0.4185 -0.2629 0.2828
C3E C 0.5019(3) -0.1551(7) 0.2334(9)
H3E H 0.5230 -0.2630 0.2199
C5E C 0.6282(2) 0.1399(6) 0.1322(6)
H4E H 0.6165 0.2589 0.1451
Co1A Co 0.7500 0.2500 0.0000
Co1B Co 0.7500 -0.2500 0.0000
Co1C Co 0.2500 -0.2500 0.0000
Cl1C Cl 0.32716(6) 0.5000 0.03488(17)
O1F O 0.21659(13) 0.3150(3) -0.2345(3)
N1B N 0.17938(15) 0.4101(4) 0.0799(4)
N1D N 0.32062(15) 0.0899(4) -0.0799(4)
O3 O 0.20991(19) 0.0000 0.5961(5)
O4 O 0.1200(4) 0.0000 0.3107(9)
loop_
_geom_bond_atom_site_label_1
_geom_bond_atom_site_label_2
_geom_bond_site_symmetry_1
_geom_bond_site_symmetry_2
As1 O1 1_555 1_555
Co1 Cl1 1_555 1_555
Cl1 Co1C 1_555 1_555
O1 Co1 1_555 1_555
O2 As1 1_555 1_555
H1 O2 1_555 1_555
N1 C5 1_555 1_555
N2 C4 1_555 1_555
C1 As1 1_555 1_555
C2 C1 1_555 1_555
H2 C2 1_555 1_555
C3 C2 1_555 1_555
H3 C3 1_555 1_555
C4 C3 1_555 1_555
C5 N2 1_555 1_555
H4 C5 1_555 1_555
O1E As1 1_555 1_555
N1E N1 1_555 1_555
C2E C1 1_555 1_555
H2E C2E 1_555 1_555
C3E C4 1_555 1_555
H3E C3E 1_555 1_555
C5E N2 1_555 1_555
H4E C5E 1_555 1_555
Co1A N1E 1_555 1_555
Co1B N1 1_555 1_555
Co1C O1E 1_555 1_555
Cl1C Co1 1_555 1_555
O1F Co1 1_555 1_555
N1B Co1 1_555 1_555
N1D Co1 1_555 1_555
N1E C5E 1_555 1_555
C2E C3E 1_555 1_555

#END
