
#######################################################################
#
#                 Cambridge Crystallographic Data Centre
#                                CCDC 
#
#######################################################################
#
# If this CIF has been generated from an entry in the Cambridge 
# Structural Database, then it will include bibliographic, chemical, 
# crystal, experimental, refinement or atomic coordinate data resulting 
# from the CCDC's data processing and validation procedures.
#
#######################################################################

data_ZOJYUU
_symmetry_cell_setting           monoclinic
_symmetry_space_group_name_H-M   'P 21/c'
_symmetry_Int_Tables_number      14
_space_group_name_Hall           '-P 2ybc'
loop_
_symmetry_equiv_pos_site_id
_symmetry_equiv_pos_as_xyz
1 x,y,z
2 -x,1/2+y,1/2-z
3 -x,-y,-z
4 x,1/2-y,1/2+z
_cell_length_a                   7.1269(8)
_cell_length_b                   14.2574(16)
_cell_length_c                   24.975(3)
_cell_angle_alpha                90
_cell_angle_beta                 91.8380(10)
_cell_angle_gamma                90
_cell_volume                     2536.43
loop_
_atom_site_label
_atom_site_type_symbol
_atom_site_fract_x
_atom_site_fract_y
_atom_site_fract_z
Zn1 Zn 1.03965(3) 0.276064(16) 0.229126(9)
Zn2 Zn 0.0000 0.5000 0.0000
N1 N 1.2426(2) 0.31189(13) 0.28612(7)
N2 N 1.0827(3) 0.85557(12) 0.48652(7)
N3 N 1.2405(2) 0.51869(12) 0.51782(7)
N4 N 1.1772(3) 0.28906(12) 0.66714(7)
O1 O 0.8693(2) 0.36823(11) 0.19821(6)
O2 O 0.8313(2) 0.42175(13) 0.28068(7)
O3 O 0.1454(2) 0.50324(11) 0.07225(6)
O4 O 0.4198(2) 0.43595(12) 0.05364(6)
O5 O 0.0899(2) 0.67118(11) 0.23874(6)
O6 O 0.2756(3) 0.63928(13) 0.31020(6)
O7 O -0.2442(2) 0.55466(13) 0.04014(7)
C1 C 1.2109(3) 0.36368(15) 0.32999(8)
H1 H 1.0971 0.3952 0.3321
C2 C 1.3415(3) 0.37202(15) 0.37236(8)
C3 C 1.5125(3) 0.32705(18) 0.36766(9)
H2 H 1.6030 0.3309 0.3952
C4 C 1.5482(3) 0.27656(17) 0.32207(10)
H3 H 1.6634 0.2470 0.3182
C5 C 1.4108(3) 0.27064(16) 0.28237(9)
H4 H 1.4355 0.2366 0.2516
C6 C 1.1402(3) 0.82124(15) 0.43983(9)
H5 H 1.1438 0.8618 0.4107
C7 C 1.1946(3) 0.72901(15) 0.43233(8)
H6 H 1.2369 0.7092 0.3993
C8 C 1.1850(3) 0.66636(14) 0.47509(8)
C9 C 1.1232(3) 0.70219(15) 0.52344(8)
H7 H 1.1137 0.6628 0.5529
C10 C 1.0765(3) 0.79524(16) 0.52775(9)
H8 H 1.0388 0.8175 0.5607
C11 C 1.2315(3) 0.56467(15) 0.47096(8)
C12 C 1.2591(3) 0.51984(15) 0.42211(8)
H9 H 1.2482 0.5529 0.3901
C13 C 1.3030(3) 0.42515(15) 0.42238(8)
C14 C 1.3156(3) 0.37804(15) 0.47117(8)
H10 H 1.3477 0.3148 0.4725
C15 C 1.2794(3) 0.42699(14) 0.51815(8)
C16 C 1.1622(3) 0.38219(15) 0.66176(8)
H11 H 1.1211 0.4169 0.6906
C17 C 1.2048(3) 0.42901(15) 0.61533(8)
H12 H 1.1932 0.4939 0.6136
C18 C 1.2653(3) 0.37923(14) 0.57099(8)
C19 C 1.2934(3) 0.28358(15) 0.57823(9)
H13 H 1.3427 0.2476 0.5510
C20 C 1.2478(4) 0.24227(16) 0.62601(9)
H14 H 1.2673 0.1781 0.6298
C21 C 0.7823(3) 0.41614(15) 0.23301(9)
C22 C 0.6059(3) 0.46469(15) 0.21303(8)
C23 C 0.5436(3) 0.45285(15) 0.16014(8)
H15 H 0.6145 0.4172 0.1371
C24 C 0.3771(3) 0.49342(14) 0.14126(8)
C25 C 0.2720(3) 0.54673(15) 0.17530(8)
H16 H 0.1594 0.5730 0.1629
C26 C 0.3334(3) 0.56151(14) 0.22819(8)
C27 C 0.4993(3) 0.51899(15) 0.24704(8)
H17 H 0.5389 0.5270 0.2826
C28 C 0.3097(3) 0.47667(14) 0.08412(8)
C29 C 0.2268(3) 0.62789(15) 0.26308(8)
H18 H -0.313(5) 0.561(3) 0.0120(10)
H19 H -0.308(5) 0.517(2) 0.0569(14)
Zn1B Zn -1.03965(3) 0.723936(16) -0.229126(9)
N1B N -1.2426(2) 0.68811(13) -0.28612(7)
N2B N -1.0827(3) 0.14443(12) -0.48652(7)
N3B N -1.2405(2) 0.48131(12) -0.51782(7)
N4B N -1.1772(3) 0.71094(12) -0.66714(7)
O1B O -0.8693(2) 0.63177(11) -0.19821(6)
O2B O -0.8313(2) 0.57825(13) -0.28068(7)
O3B O -0.1454(2) 0.49676(11) -0.07225(6)
O4B O -0.4198(2) 0.56405(12) -0.05364(6)
O5B O -0.0899(2) 0.32882(11) -0.23874(6)
O6B O -0.2756(3) 0.36072(13) -0.31020(6)
O7B O 0.2442(2) 0.44534(13) -0.04014(7)
C1B C -1.2109(3) 0.63632(15) -0.32999(8)
H1B H -1.0971 0.6048 -0.3321
C2B C -1.3415(3) 0.62798(15) -0.37236(8)
C3B C -1.5125(3) 0.67295(18) -0.36766(9)
H2B H -1.6030 0.6691 -0.3952
C4B C -1.5482(3) 0.72344(17) -0.32207(10)
H3B H -1.6634 0.7530 -0.3182
C5B C -1.4108(3) 0.72936(16) -0.28237(9)
H4B H -1.4355 0.7634 -0.2516
C6B C -1.1402(3) 0.17876(15) -0.43983(9)
H5B H -1.1438 0.1382 -0.4107
C7B C -1.1946(3) 0.27099(15) -0.43233(8)
H6B H -1.2369 0.2908 -0.3993
C8B C -1.1850(3) 0.33364(14) -0.47509(8)
C9B C -1.1232(3) 0.29781(15) -0.52344(8)
H7B H -1.1137 0.3372 -0.5529
C10B C -1.0765(3) 0.20476(16) -0.52775(9)
H8B H -1.0388 0.1825 -0.5607
C11B C -1.2315(3) 0.43533(15) -0.47096(8)
C12B C -1.2591(3) 0.48016(15) -0.42211(8)
H9B H -1.2482 0.4471 -0.3901
C13B C -1.3030(3) 0.57485(15) -0.42238(8)
C14B C -1.3156(3) 0.62196(15) -0.47117(8)
H10B H -1.3477 0.6852 -0.4725
C15B C -1.2794(3) 0.57301(14) -0.51815(8)
C16B C -1.1622(3) 0.61781(15) -0.66176(8)
H11B H -1.1211 0.5831 -0.6906
C17B C -1.2048(3) 0.57099(15) -0.61533(8)
H12B H -1.1932 0.5061 -0.6136
C18B C -1.2653(3) 0.62077(14) -0.57099(8)
C19B C -1.2934(3) 0.71642(15) -0.57823(9)
H13B H -1.3427 0.7524 -0.5510
C20B C -1.2478(4) 0.75773(16) -0.62601(9)
H14B H -1.2673 0.8219 -0.6298
C21B C -0.7823(3) 0.58386(15) -0.23301(9)
C22B C -0.6059(3) 0.53531(15) -0.21303(8)
C23B C -0.5436(3) 0.54715(15) -0.16014(8)
H15B H -0.6145 0.5828 -0.1371
C24B C -0.3771(3) 0.50658(14) -0.14126(8)
C25B C -0.2720(3) 0.45327(15) -0.17530(8)
H16B H -0.1594 0.4270 -0.1629
C26B C -0.3334(3) 0.43849(14) -0.22819(8)
C27B C -0.4993(3) 0.48101(15) -0.24704(8)
H17B H -0.5389 0.4730 -0.2826
C28B C -0.3097(3) 0.52333(14) -0.08412(8)
C29B C -0.2268(3) 0.37211(15) -0.26308(8)
H18B H 0.313(5) 0.439(3) -0.0120(10)
H19B H 0.308(5) 0.483(2) -0.0569(14)
Zn1A Zn -1.03965(3) 0.776064(16) -0.729126(9)
Zn1A_2 Zn -0.03965(3) 0.776064(16) 0.270874(9)
Zn1C Zn 0.03965(3) 0.223936(16) -0.270874(9)
Zn1C_2 Zn 1.03965(3) 0.223936(16) 0.729126(9)
Zn2A Zn -1.0000 0.0000 -0.5000
Zn2A_2 Zn 1.0000 1.0000 0.5000
N2A N -0.0827(3) 0.35557(12) 0.01348(7)
N2C N 0.0827(3) 0.64443(12) -0.01348(7)
N4A N -1.1772(3) 0.78906(12) -0.16714(7)
N4C N 1.1772(3) 0.21094(12) 0.16714(7)
O5A O 0.9101(2) 0.17118(11) 0.26126(6)
O5C O -0.9101(2) 0.82882(11) -0.26126(6)
loop_
_geom_bond_atom_site_label_1
_geom_bond_atom_site_label_2
_geom_bond_site_symmetry_1
_geom_bond_site_symmetry_2
Zn1 N1 1_555 1_555
Zn2 O3 1_555 1_555
N1 C1 1_555 1_555
N2 C6 1_555 1_555
N3 C11 1_555 1_555
N4 C16 1_555 1_555
O1 Zn1 1_555 1_555
O2 C21 1_555 1_555
O3 C28 1_555 1_555
O4 C28 1_555 1_555
O5 C29 1_555 1_555
O6 C29 1_555 1_555
O7 Zn2 1_555 1_555
C1 H1 1_555 1_555
C2 C1 1_555 1_555
C3 C2 1_555 1_555
H2 C3 1_555 1_555
C4 C3 1_555 1_555
H3 C4 1_555 1_555
C5 N1 1_555 1_555
H4 C5 1_555 1_555
C6 H5 1_555 1_555
C7 C6 1_555 1_555
H6 C7 1_555 1_555
C8 C7 1_555 1_555
C9 C8 1_555 1_555
H7 C9 1_555 1_555
C10 N2 1_555 1_555
H8 C10 1_555 1_555
C11 C8 1_555 1_555
C12 C11 1_555 1_555
H9 C12 1_555 1_555
C13 C2 1_555 1_555
C14 C13 1_555 1_555
H10 C14 1_555 1_555
C15 N3 1_555 1_555
C16 H11 1_555 1_555
C17 C16 1_555 1_555
H12 C17 1_555 1_555
C18 C15 1_555 1_555
C19 C18 1_555 1_555
H13 C19 1_555 1_555
C20 N4 1_555 1_555
H14 C20 1_555 1_555
C21 O1 1_555 1_555
C22 C21 1_555 1_555
C23 C22 1_555 1_555
H15 C23 1_555 1_555
C24 C23 1_555 1_555
C25 C24 1_555 1_555
H16 C25 1_555 1_555
C26 C25 1_555 1_555
C27 C22 1_555 1_555
H17 C27 1_555 1_555
C28 C24 1_555 1_555
C29 C26 1_555 1_555
H18 O7 1_555 1_555
H19 O7 1_555 1_555
Zn1B N1B 1_555 1_555
N1B C1B 1_555 1_555
N2B C6B 1_555 1_555
N3B C11B 1_555 1_555
N4B C16B 1_555 1_555
O1B Zn1B 1_555 1_555
O2B C21B 1_555 1_555
O3B Zn2 1_555 1_555
O4B C28B 1_555 1_555
O5B C29B 1_555 1_555
O6B C29B 1_555 1_555
O7B Zn2 1_555 1_555
C1B H1B 1_555 1_555
C2B C1B 1_555 1_555
C3B C2B 1_555 1_555
H2B C3B 1_555 1_555
C4B C3B 1_555 1_555
H3B C4B 1_555 1_555
C5B N1B 1_555 1_555
H4B C5B 1_555 1_555
C6B H5B 1_555 1_555
C7B C6B 1_555 1_555
H6B C7B 1_555 1_555
C8B C7B 1_555 1_555
C9B C8B 1_555 1_555
H7B C9B 1_555 1_555
C10B N2B 1_555 1_555
H8B C10B 1_555 1_555
C11B C8B 1_555 1_555
C12B C11B 1_555 1_555
H9B C12B 1_555 1_555
C13B C2B 1_555 1_555
C14B C13B 1_555 1_555
H10B C14B 1_555 1_555
C15B N3B 1_555 1_555
C16B H11B 1_555 1_555
C17B C16B 1_555 1_555
H12B C17B 1_555 1_555
C18B C15B 1_555 1_555
C19B C18B 1_555 1_555
H13B C19B 1_555 1_555
C20B N4B 1_555 1_555
H14B C20B 1_555 1_555
C21B O1B 1_555 1_555
C22B C21B 1_555 1_555
C23B C22B 1_555 1_555
H15B C23B 1_555 1_555
C24B C23B 1_555 1_555
C25B C24B 1_555 1_555
H16B C25B 1_555 1_555
C26B C25B 1_555 1_555
C27B C22B 1_555 1_555
H17B C27B 1_555 1_555
C28B O3B 1_555 1_555
C29B C26B 1_555 1_555
H18B O7B 1_555 1_555
H19B O7B 1_555 1_555
Zn1A N4B 1_555 1_555
Zn1A_2 O5 1_555 1_555
Zn1C O5B 1_555 1_555
Zn1C_2 N4 1_555 1_555
Zn2A N2B 1_555 1_555
Zn2A_2 N2 1_555 1_555
N2A Zn2 1_555 1_555
N2C Zn2 1_555 1_555
N4A Zn1B 1_555 1_555
N4C Zn1 1_555 1_555
O5A Zn1 1_555 1_555
O5C Zn1B 1_555 1_555
C4 C5 1_555 1_555
C9 C10 1_555 1_555
C12 C13 1_555 1_555
C14 C15 1_555 1_555
C17 C18 1_555 1_555
C19 C20 1_555 1_555
C26 C27 1_555 1_555
C4B C5B 1_555 1_555
C9B C10B 1_555 1_555
C12B C13B 1_555 1_555
C14B C15B 1_555 1_555
C17B C18B 1_555 1_555
C19B C20B 1_555 1_555
C24B C28B 1_555 1_555
C26B C27B 1_555 1_555

#END
