
#######################################################################
#
#                 Cambridge Crystallographic Data Centre
#                                CCDC 
#
#######################################################################
#
# If this CIF has been generated from an entry in the Cambridge 
# Structural Database, then it will include bibliographic, chemical, 
# crystal, experimental, refinement or atomic coordinate data resulting 
# from the CCDC's data processing and validation procedures.
#
#######################################################################

data_ZOKDIO
_symmetry_cell_setting           monoclinic
_symmetry_space_group_name_H-M   'P 21/c'
_symmetry_Int_Tables_number      14
_space_group_name_Hall           '-P 2ybc'
loop_
_symmetry_equiv_pos_site_id
_symmetry_equiv_pos_as_xyz
1 x,y,z
2 -x,1/2+y,1/2-z
3 -x,-y,-z
4 x,1/2-y,1/2+z
_cell_length_a                   10.835(3)
_cell_length_b                   20.653(6)
_cell_length_c                   13.971(4)
_cell_angle_alpha                90
_cell_angle_beta                 100.177(4)
_cell_angle_gamma                90
_cell_volume                     3077.18
loop_
_atom_site_label
_atom_site_type_symbol
_atom_site_fract_x
_atom_site_fract_y
_atom_site_fract_z
Zn1 Zn -0.24779(6) 0.60713(3) 0.97572(5)
S1 S 0.2290(2) 0.94101(9) 0.95417(13)
N1 N -0.2206(4) 0.5211(2) 0.9106(3)
N2 N -0.2650(4) 0.2975(2) 0.7666(3)
N3 N -0.5846(4) 0.1468(2) 0.5901(4)
N4 N 0.3242(6) 0.2261(4) 0.8422(8)
O1 O -0.1427(4) 0.6816(2) 0.9631(3)
O2 O 0.0349(5) 0.6333(2) 0.9422(4)
O3 O 0.1389(6) 0.9837(3) 0.8949(4)
O4 O 0.3490(6) 0.9310(3) 0.9279(4)
O5 O 0.2131(4) 1.08510(19) 1.3840(3)
O6 O 0.4048(4) 1.0466(3) 1.4128(4)
C1 C -0.3112(6) 0.4763(3) 0.8987(5)
H1 H -0.3880 0.4869 0.9155
C2 C -0.2963(6) 0.4162(3) 0.8631(5)
H2 H -0.3628 0.3871 0.8553
C3 C -0.1832(5) 0.3978(3) 0.8385(4)
C4 C -0.0897(6) 0.4444(3) 0.8521(5)
H3 H -0.0115 0.4349 0.8370
C5 C -0.1113(6) 0.5048(3) 0.8878(5)
H4 H -0.0468 0.5351 0.8962
C6 C -0.1618(5) 0.3311(3) 0.8039(4)
C7 C -0.0428(5) 0.3056(3) 0.8146(4)
H5 H 0.0262 0.3314 0.8383
C8 C -0.0250(5) 0.2412(3) 0.7900(4)
C9 C -0.1329(6) 0.2066(3) 0.7507(4)
H6 H -0.1265 0.1636 0.7324
C10 C -0.2487(5) 0.2362(3) 0.7389(4)
C11 C -0.4763(6) 0.1164(3) 0.6037(6)
H7 H -0.4740 0.0747 0.5789
C12 C -0.3665(7) 0.1424(3) 0.6522(6)
H8 H -0.2928 0.1184 0.6607
C13 C -0.3661(6) 0.2039(3) 0.6881(4)
C14 C -0.4772(7) 0.2362(4) 0.6709(7)
H9 H -0.4812 0.2787 0.6920
C15 C -0.5834(7) 0.2066(4) 0.6227(7)
H10 H -0.6580 0.2299 0.6125
C16 C 0.2080(7) 0.2485(4) 0.8221(7)
H11 H 0.1978 0.2932 0.8176
C17 C 0.1013(6) 0.2114(3) 0.8073(4)
C18 C 0.1200(7) 0.1449(3) 0.8086(6)
H12 H 0.0517 0.1170 0.7970
C19 C 0.2398(8) 0.1205(4) 0.8270(8)
H13 H 0.2537 0.0761 0.8264
C20 C 0.3365(8) 0.1619(5) 0.8457(8)
H14 H 0.4168 0.1448 0.8621
C21 C -0.0272(6) 0.6809(3) 0.9550(4)
C22 C 0.0363(6) 0.7470(3) 0.9611(4)
C23 C -0.0339(6) 0.8027(3) 0.9429(5)
H15 H -0.1210 0.8005 0.9314
C24 C 0.0256(7) 0.8622(3) 0.9419(5)
H16 H -0.0215 0.8998 0.9285
C25 C 0.1543(7) 0.8653(3) 0.9607(4)
C26 C 0.2253(7) 0.8097(4) 0.9822(5)
H17 H 0.3123 0.8121 0.9970
C27 C 0.1652(6) 0.7507(3) 0.9815(5)
H18 H 0.2122 0.7130 0.9949
C28 C 0.3056(6) 1.0553(3) 1.3589(4)
C29 C 0.2859(5) 1.0273(3) 1.2571(4)
C30 C 0.1701(6) 1.0064(4) 1.2122(5)
H19 H 0.1015 1.0121 1.2430
C31 C 0.1536(6) 0.9773(4) 1.1225(5)
H20 H 0.0752 0.9614 1.0943
C32 C 0.2535(6) 0.9716(3) 1.0748(4)
C33 C 0.3702(7) 0.9935(4) 1.1166(5)
H21 H 0.4375 0.9899 1.0837
C34 C 0.3863(6) 1.0210(4) 1.2087(5)
H22 H 0.4653 1.0353 1.2382
Zn1A Zn -0.75221(6) 0.10713(3) 0.52428(5)
Zn1A_2 Zn 0.24779(6) 1.10713(3) 1.52428(5)
N3A N -0.4154(4) 0.6468(2) 0.9099(4)
O5A O -0.2131(4) 0.58510(19) 1.1160(3)
O7 O 0.5376(17) 0.2882(11) 0.9129(13)
O8 O 0.203(3) 0.6072(13) 0.979(3)
O9 O 0.294(3) 0.6093(15) 0.970(3)
loop_
_geom_bond_atom_site_label_1
_geom_bond_atom_site_label_2
_geom_bond_site_symmetry_1
_geom_bond_site_symmetry_2
Zn1 N1 1_555 1_555
S1 O3 1_555 1_555
N1 C1 1_555 1_555
N2 C6 1_555 1_555
N3 C11 1_555 1_555
N4 C16 1_555 1_555
O1 Zn1 1_555 1_555
O2 C21 1_555 1_555
O4 S1 1_555 1_555
O5 C28 1_555 1_555
O6 C28 1_555 1_555
C1 H1 1_555 1_555
C2 C1 1_555 1_555
H2 C2 1_555 1_555
C3 C2 1_555 1_555
C4 C3 1_555 1_555
H3 C4 1_555 1_555
C5 N1 1_555 1_555
H4 C5 1_555 1_555
C6 C3 1_555 1_555
C7 C6 1_555 1_555
H5 C7 1_555 1_555
C8 C7 1_555 1_555
C9 C8 1_555 1_555
H6 C9 1_555 1_555
C10 N2 1_555 1_555
C11 H7 1_555 1_555
C12 C11 1_555 1_555
H8 C12 1_555 1_555
C13 C10 1_555 1_555
C14 C13 1_555 1_555
H9 C14 1_555 1_555
C15 N3 1_555 1_555
H10 C15 1_555 1_555
C16 H11 1_555 1_555
C17 C8 1_555 1_555
C18 C17 1_555 1_555
H12 C18 1_555 1_555
C19 C18 1_555 1_555
H13 C19 1_555 1_555
C20 N4 1_555 1_555
H14 C20 1_555 1_555
C21 O1 1_555 1_555
C22 C21 1_555 1_555
C23 C22 1_555 1_555
H15 C23 1_555 1_555
C24 C23 1_555 1_555
H16 C24 1_555 1_555
C25 S1 1_555 1_555
C26 C25 1_555 1_555
H17 C26 1_555 1_555
C27 C22 1_555 1_555
H18 C27 1_555 1_555
C28 C29 1_555 1_555
C29 C30 1_555 1_555
C30 H19 1_555 1_555
C31 C30 1_555 1_555
H20 C31 1_555 1_555
C32 S1 1_555 1_555
C33 C32 1_555 1_555
H21 C33 1_555 1_555
C34 C29 1_555 1_555
H22 C34 1_555 1_555
Zn1A N3 1_555 1_555
Zn1A_2 O5 1_555 1_555
N3A Zn1 1_555 1_555
O5A Zn1 1_555 1_555
C4 C5 1_555 1_555
C9 C10 1_555 1_555
C12 C13 1_555 1_555
C14 C15 1_555 1_555
C16 C17 1_555 1_555
C19 C20 1_555 1_555
C24 C25 1_555 1_555
C26 C27 1_555 1_555
C31 C32 1_555 1_555
C33 C34 1_555 1_555

#END
