
#######################################################################
#
#                 Cambridge Crystallographic Data Centre
#                                CCDC 
#
#######################################################################
#
# If this CIF has been generated from an entry in the Cambridge 
# Structural Database, then it will include bibliographic, chemical, 
# crystal, experimental, refinement or atomic coordinate data resulting 
# from the CCDC's data processing and validation procedures.
#
#######################################################################

data_ZOKDOU
_symmetry_cell_setting           monoclinic
_symmetry_space_group_name_H-M   'P 21/c'
_symmetry_Int_Tables_number      14
_space_group_name_Hall           '-P 2ybc'
loop_
_symmetry_equiv_pos_site_id
_symmetry_equiv_pos_as_xyz
1 x,y,z
2 -x,1/2+y,1/2-z
3 -x,-y,-z
4 x,1/2-y,1/2+z
_cell_length_a                   7.5250(10)
_cell_length_b                   21.271(3)
_cell_length_c                   21.125(3)
_cell_angle_alpha                90
_cell_angle_beta                 93.438(2)
_cell_angle_gamma                90
_cell_volume                     3375.27
loop_
_atom_site_label
_atom_site_type_symbol
_atom_site_fract_x
_atom_site_fract_y
_atom_site_fract_z
Zn1 Zn -0.29132(3) 0.956924(10) 0.503757(10)
Zn2 Zn 0.21800(3) 1.419926(10) 0.503337(10)
N1 N -0.1382(2) 0.90200(7) 0.56324(7)
N2 N 0.2003(2) 0.81134(8) 0.75242(8)
N3 N 0.5755(2) 0.87925(8) 0.94413(8)
N4 N 0.2212(3) 0.51710(9) 0.67695(10)
O1 O -0.2560(2) 0.95611(7) 0.41396(7)
O2 O -0.3435(3) 0.85726(8) 0.41715(7)
O3 O -0.2465(2) 0.94282(7) 0.08463(7)
O4 O -0.2616(3) 0.83920(8) 0.08790(7)
O5 O -0.2356(2) 1.04451(6) 0.53142(7)
O6 O -0.47331(19) 1.07171(7) 0.46986(7)
O7 O 0.0436(2) 1.35912(7) 0.53349(7)
O8 O -0.1814(3) 1.38099(7) 0.46407(9)
O9 O 0.1876(3) 1.49749(8) 0.55008(8)
C1 C -0.1743(3) 0.84021(9) 0.56446(9)
H1 H -0.2571 0.8241 0.5342
C2 C -0.0951(3) 0.79945(9) 0.60808(9)
H2 H -0.1256 0.7571 0.6074
C3 C 0.0312(3) 0.82221(9) 0.65322(9)
C4 C 0.0712(3) 0.88600(10) 0.65061(10)
H3 H 0.1560 0.9030 0.6795
C5 C -0.0133(3) 0.92397(9) 0.60579(10)
H4 H 0.0168 0.9664 0.6048
C6 C 0.1209(3) 0.78100(9) 0.70235(9)
C7 C 0.1230(3) 0.71570(9) 0.69666(9)
H5 H 0.0688 0.6964 0.6611
C8 C 0.2071(3) 0.67960(9) 0.74479(9)
C9 C 0.2856(3) 0.71137(10) 0.79646(10)
H6 H 0.3406 0.6889 0.8300
C10 C 0.2822(3) 0.77673(9) 0.79837(10)
C11 C 0.5835(3) 0.81647(10) 0.94096(10)
H7 H 0.6571 0.7954 0.9708
C12 C 0.4885(3) 0.78172(9) 0.89587(10)
H8 H 0.4993 0.7382 0.8953
C13 C 0.3765(3) 0.81196(9) 0.85114(9)
C14 C 0.3605(3) 0.87661(10) 0.85677(12)
H9 H 0.2820 0.8985 0.8292
C15 C 0.4606(3) 0.90842(10) 0.90309(11)
H10 H 0.4479 0.9518 0.9060
C16 C 0.2094(4) 0.57938(10) 0.68358(11)
H11 H 0.1943 0.6036 0.6470
C17 C 0.2182(3) 0.61003(9) 0.74139(10)
C18 C 0.2443(3) 0.57254(10) 0.79510(11)
H12 H 0.2509 0.5908 0.8352
C19 C 0.2602(4) 0.50854(11) 0.78876(12)
H13 H 0.2797 0.4831 0.8243
C20 C 0.2469(4) 0.48275(11) 0.72921(13)
H14 H 0.2563 0.4394 0.7252
C21 C -0.2960(3) 0.90336(10) 0.38764(9)
C22 C -0.2825(3) 0.90033(10) 0.31719(9)
C23 C -0.2672(3) 0.95470(10) 0.28152(10)
H15 H -0.2605 0.9935 0.3018
C24 C -0.2617(3) 0.95197(10) 0.21646(10)
H16 H -0.2513 0.9889 0.1934
C25 C -0.2716(3) 0.89471(10) 0.18513(9)
C26 C -0.2866(3) 0.84016(10) 0.22061(10)
H17 H -0.2938 0.8014 0.2003
C27 C -0.2911(3) 0.84298(10) 0.28590(10)
H18 H -0.3000 0.8060 0.3091
C28 C -0.2601(3) 0.89098(10) 0.11464(10)
C29 C -0.3312(3) 1.08512(9) 0.50168(9)
C30 C -0.2690(3) 1.15224(9) 0.50278(9)
C31 C -0.1297(3) 1.17185(9) 0.54409(10)
H19 H -0.0731 1.1432 0.5718
C32 C -0.0743(3) 1.23414(9) 0.54419(10)
H20 H 0.0184 1.2471 0.5722
C33 C -0.1573(3) 1.27730(9) 0.50244(9)
C34 C -0.2963(3) 1.25734(9) 0.46093(10)
H21 H -0.3528 1.2859 0.4331
C35 C -0.3512(3) 1.19512(9) 0.46085(10)
H22 H -0.4433 1.1820 0.4326
C36 C -0.0962(3) 1.34458(9) 0.49967(10)
H23 H 0.168(4) 1.5343(9) 0.5391(15)
H24 H 0.198(4) 1.4961(15) 0.5891(8)
Zn1B Zn -0.70868(3) 1.043076(10) 0.496243(10)
Zn2A Zn -0.21800(3) 0.919926(10) -0.003337(10)
Zn2A_2 Zn 0.78200(3) 0.919926(10) 0.996663(10)
N3A N 0.4245(2) 1.37925(8) 0.55587(8)
O3A O 0.2465(2) 1.44282(7) 0.41537(7)
O6B O -0.52669(19) 0.92829(7) 0.53014(7)
O10 O 0.1349(8) 0.3384(3) 0.6713(3)
loop_
_geom_bond_atom_site_label_1
_geom_bond_atom_site_label_2
_geom_bond_site_symmetry_1
_geom_bond_site_symmetry_2
Zn1 N1 1_555 1_555
Zn2 O7 1_555 1_555
N1 C1 1_555 1_555
N2 C6 1_555 1_555
N3 C11 1_555 1_555
N4 C16 1_555 1_555
O1 Zn1 1_555 1_555
O2 C21 1_555 1_555
O3 C28 1_555 1_555
O4 C28 1_555 1_555
O5 Zn1 1_555 1_555
O6 C29 1_555 1_555
O7 C36 1_555 1_555
O8 C36 1_555 1_555
O9 Zn2 1_555 1_555
C1 H1 1_555 1_555
C2 C1 1_555 1_555
H2 C2 1_555 1_555
C3 C2 1_555 1_555
C4 C3 1_555 1_555
H3 C4 1_555 1_555
C5 N1 1_555 1_555
H4 C5 1_555 1_555
C6 C3 1_555 1_555
C7 C6 1_555 1_555
H5 C7 1_555 1_555
C8 C7 1_555 1_555
C9 C8 1_555 1_555
H6 C9 1_555 1_555
C10 N2 1_555 1_555
C11 H7 1_555 1_555
C12 C11 1_555 1_555
H8 C12 1_555 1_555
C13 C10 1_555 1_555
C14 C13 1_555 1_555
H9 C14 1_555 1_555
C15 N3 1_555 1_555
H10 C15 1_555 1_555
C16 H11 1_555 1_555
C17 C8 1_555 1_555
C18 C17 1_555 1_555
H12 C18 1_555 1_555
C19 C18 1_555 1_555
H13 C19 1_555 1_555
C20 N4 1_555 1_555
H14 C20 1_555 1_555
C21 O1 1_555 1_555
C22 C21 1_555 1_555
C23 C22 1_555 1_555
H15 C23 1_555 1_555
C24 C23 1_555 1_555
H16 C24 1_555 1_555
C25 C24 1_555 1_555
C26 C25 1_555 1_555
H17 C26 1_555 1_555
C27 C22 1_555 1_555
H18 C27 1_555 1_555
C28 C25 1_555 1_555
C29 O5 1_555 1_555
C30 C29 1_555 1_555
C31 C30 1_555 1_555
H19 C31 1_555 1_555
C32 C31 1_555 1_555
H20 C32 1_555 1_555
C33 C32 1_555 1_555
C34 C33 1_555 1_555
H21 C34 1_555 1_555
C35 C30 1_555 1_555
H22 C35 1_555 1_555
C36 C33 1_555 1_555
H23 O9 1_555 1_555
H24 O9 1_555 1_555
Zn1B O6 1_555 1_555
Zn2A O3 1_555 1_555
Zn2A_2 N3 1_555 1_555
N3A Zn2 1_555 1_555
O3A Zn2 1_555 1_555
O6B Zn1 1_555 1_555
C4 C5 1_555 1_555
C9 C10 1_555 1_555
C12 C13 1_555 1_555
C14 C15 1_555 1_555
C16 C17 1_555 1_555
C19 C20 1_555 1_555
C26 C27 1_555 1_555
C34 C35 1_555 1_555

#END
