
#######################################################################
#
#                 Cambridge Crystallographic Data Centre
#                                CCDC 
#
#######################################################################
#
# If this CIF has been generated from an entry in the Cambridge 
# Structural Database, then it will include bibliographic, chemical, 
# crystal, experimental, refinement or atomic coordinate data resulting 
# from the CCDC's data processing and validation procedures.
#
#######################################################################

data_ZOKFAI
_symmetry_cell_setting           monoclinic
_symmetry_space_group_name_H-M   'C 2/c'
_symmetry_Int_Tables_number      15
_space_group_name_Hall           '-C 2yn'
loop_
_symmetry_equiv_pos_site_id
_symmetry_equiv_pos_as_xyz
1 x,y,z
2 -x,y,1/2-z
3 1/2+x,1/2+y,z
4 1/2-x,1/2+y,1/2-z
5 -x,-y,-z
6 x,-y,1/2+z
7 1/2-x,1/2-y,-z
8 1/2+x,1/2-y,1/2+z
_cell_length_a                   30.899(16)
_cell_length_b                   8.351(4)
_cell_length_c                   22.472(11)
_cell_angle_alpha                90
_cell_angle_beta                 130.092(13)
_cell_angle_gamma                90
_cell_volume                     4436.01
loop_
_atom_site_label
_atom_site_type_symbol
_atom_site_fract_x
_atom_site_fract_y
_atom_site_fract_z
Zn1 Zn 0.37951(3) 0.54610(8) 0.83229(4)
Zn2 Zn 0.0000 1.45734(9) 0.2500
Cl1 Cl 0.46093(8) 0.4262(2) 0.88428(10)
Cl2 Cl 0.30823(8) 0.4105(2) 0.80818(11)
Cl3 Cl 0.01103(5) 1.59465(19) 0.34391(8)
N1 N 0.35148(16) 0.6613(5) 0.7317(2)
N2 N 0.24952(15) 1.0065(4) 0.4932(2)
N3 N 0.07037(14) 1.3195(5) 0.3025(2)
N4 N 0.38949(17) 1.2455(5) 0.3901(2)
C1 C 0.38374(19) 0.6701(6) 0.7123(3)
H1 H 0.4184 0.6176 0.7432
C2 C 0.36801(18) 0.7539(6) 0.6480(2)
H2 H 0.3914 0.7538 0.6354
C3 C 0.31763(17) 0.8379(5) 0.6024(2)
C4 C 0.28426(19) 0.8296(6) 0.6233(3)
H3 H 0.2498 0.8831 0.5941
C5 C 0.3024(2) 0.7418(6) 0.6873(3)
H4 H 0.2795 0.7379 0.7006
C6 C 0.29992(17) 0.9336(5) 0.5343(2)
C7 C 0.33488(18) 0.9458(5) 0.5156(2)
H5 H 0.3692 0.8913 0.5449
C8 C 0.31814(19) 1.0406(6) 0.4526(2)
C9 C 0.26517(18) 1.1126(6) 0.4101(3)
H6 H 0.2518 1.1741 0.3667
C10 C 0.23235(17) 1.0943(5) 0.4310(2)
C11 C 0.10059(18) 1.3299(6) 0.2795(3)
H7 H 0.0857 1.3872 0.2345
C12 C 0.15261(17) 1.2602(6) 0.3192(2)
H8 H 0.1725 1.2720 0.3014
C13 C 0.17571(16) 1.1722(5) 0.3858(2)
C14 C 0.14387(18) 1.1551(6) 0.4086(3)
H9 H 0.1571 1.0934 0.4519
C15 C 0.09130(18) 1.2321(6) 0.3657(3)
H10 H 0.0702 1.2221 0.3817
C16 C 0.35628(19) 1.2136(6) 0.4069(3)
H11 H 0.3326 1.2942 0.4000
C17 C 0.35515(18) 1.0679(6) 0.4340(3)
C18 C 0.3906(2) 0.9463(7) 0.4429(3)
H12 H 0.3913 0.8453 0.4610
C19 C 0.4240(2) 0.9805(7) 0.4243(3)
H13 H 0.4472 0.9017 0.4285
C20 C 0.4232(2) 1.1297(8) 0.3997(3)
H14 H 0.4471 1.1520 0.3891
Zn1A Zn -0.37951(3) 0.54610(8) -0.33229(4)
Cl1A Cl -0.46093(8) 0.4262(2) -0.38428(10)
Cl2A Cl -0.30823(8) 0.4105(2) -0.30818(11)
Cl3A Cl -0.01103(5) 1.59465(19) 0.15609(8)
N1A N -0.35148(16) 0.6613(5) -0.2317(2)
N2A N -0.24952(15) 1.0065(4) 0.0068(2)
N3A N -0.07037(14) 1.3195(5) 0.1975(2)
N4A N -0.38949(17) 1.2455(5) 0.1099(2)
C1A C -0.38374(19) 0.6701(6) -0.2123(3)
H1A H -0.4184 0.6176 -0.2432
C2A C -0.36801(18) 0.7539(6) -0.1480(2)
H2A H -0.3914 0.7538 -0.1354
C3A C -0.31763(17) 0.8379(5) -0.1024(2)
C4A C -0.28426(19) 0.8296(6) -0.1233(3)
H3A H -0.2498 0.8831 -0.0941
C5A C -0.3024(2) 0.7418(6) -0.1873(3)
H4A H -0.2795 0.7379 -0.2006
C6A C -0.29992(17) 0.9336(5) -0.0343(2)
C7A C -0.33488(18) 0.9458(5) -0.0156(2)
H5A H -0.3692 0.8913 -0.0449
C8A C -0.31814(19) 1.0406(6) 0.0474(2)
C9A C -0.26517(18) 1.1126(6) 0.0899(3)
H6A H -0.2518 1.1741 0.1333
C10A C -0.23235(17) 1.0943(5) 0.0690(2)
C11A C -0.10059(18) 1.3299(6) 0.2205(3)
H7A H -0.0857 1.3872 0.2655
C12A C -0.15261(17) 1.2602(6) 0.1808(2)
H8A H -0.1725 1.2720 0.1986
C13A C -0.17571(16) 1.1722(5) 0.1142(2)
C14A C -0.14387(18) 1.1551(6) 0.0914(3)
H9A H -0.1571 1.0934 0.0481
C15A C -0.09130(18) 1.2321(6) 0.1343(3)
H10A H -0.0702 1.2221 0.1183
C16A C -0.35628(19) 1.2136(6) 0.0931(3)
H11A H -0.3326 1.2942 0.1000
C17A C -0.35515(18) 1.0679(6) 0.0660(3)
C18A C -0.3906(2) 0.9463(7) 0.0571(3)
H12A H -0.3913 0.8453 0.0390
C19A C -0.4240(2) 0.9805(7) 0.0757(3)
H13A H -0.4472 0.9017 0.0715
C20A C -0.4232(2) 1.1297(8) 0.1003(3)
H14A H -0.4471 1.1520 0.1109
Zn1D Zn -0.37951(3) 1.45390(8) 0.16771(4)
Zn1E Zn 0.37951(3) 1.45390(8) 0.33229(4)
N4D N -0.38949(17) 0.7545(5) -0.3901(2)
N4E N 0.38949(17) 0.7545(5) 0.8901(2)
O1 O 0.0916(5) 0.9305(10) 0.4754(6)
loop_
_geom_bond_atom_site_label_1
_geom_bond_atom_site_label_2
_geom_bond_site_symmetry_1
_geom_bond_site_symmetry_2
Zn1 Cl1 1_555 1_555
Zn2 Cl3 1_555 1_555
Cl2 Zn1 1_555 1_555
N1 Zn1 1_555 1_555
N2 C6 1_555 1_555
N3 Zn2 1_555 1_555
N4 C16 1_555 1_555
C1 N1 1_555 1_555
H1 C1 1_555 1_555
C2 C1 1_555 1_555
H2 C2 1_555 1_555
C3 C2 1_555 1_555
C4 C3 1_555 1_555
H3 C4 1_555 1_555
C5 N1 1_555 1_555
H4 C5 1_555 1_555
C6 C3 1_555 1_555
C7 C6 1_555 1_555
H5 C7 1_555 1_555
C8 C7 1_555 1_555
C9 C8 1_555 1_555
H6 C9 1_555 1_555
C10 N2 1_555 1_555
C11 N3 1_555 1_555
H7 C11 1_555 1_555
C12 C11 1_555 1_555
H8 C12 1_555 1_555
C13 C10 1_555 1_555
C14 C13 1_555 1_555
H9 C14 1_555 1_555
C15 N3 1_555 1_555
H10 C15 1_555 1_555
C16 H11 1_555 1_555
C17 C8 1_555 1_555
C18 C17 1_555 1_555
H12 C18 1_555 1_555
C19 C18 1_555 1_555
H13 C19 1_555 1_555
C20 N4 1_555 1_555
H14 C20 1_555 1_555
Zn1A Cl1A 1_555 1_555
Cl2A Zn1A 1_555 1_555
Cl3A Zn2 1_555 1_555
N1A Zn1A 1_555 1_555
N2A C6A 1_555 1_555
N3A Zn2 1_555 1_555
N4A C16A 1_555 1_555
C1A N1A 1_555 1_555
H1A C1A 1_555 1_555
C2A C1A 1_555 1_555
H2A C2A 1_555 1_555
C3A C2A 1_555 1_555
C4A C3A 1_555 1_555
H3A C4A 1_555 1_555
C5A N1A 1_555 1_555
H4A C5A 1_555 1_555
C6A C3A 1_555 1_555
C7A C6A 1_555 1_555
H5A C7A 1_555 1_555
C8A C7A 1_555 1_555
C9A C8A 1_555 1_555
H6A C9A 1_555 1_555
C10A N2A 1_555 1_555
C11A N3A 1_555 1_555
H7A C11A 1_555 1_555
C12A C11A 1_555 1_555
H8A C12A 1_555 1_555
C13A C10A 1_555 1_555
C14A C13A 1_555 1_555
H9A C14A 1_555 1_555
C15A N3A 1_555 1_555
H10A C15A 1_555 1_555
C16A H11A 1_555 1_555
C17A C8A 1_555 1_555
C18A C17A 1_555 1_555
H12A C18A 1_555 1_555
C19A C18A 1_555 1_555
H13A C19A 1_555 1_555
C20A N4A 1_555 1_555
H14A C20A 1_555 1_555
Zn1D N4A 1_555 1_555
Zn1E N4 1_555 1_555
N4D Zn1A 1_555 1_555
N4E Zn1 1_555 1_555
C4 C5 1_555 1_555
C9 C10 1_555 1_555
C12 C13 1_555 1_555
C14 C15 1_555 1_555
C16 C17 1_555 1_555
C19 C20 1_555 1_555
C4A C5A 1_555 1_555
C9A C10A 1_555 1_555
C12A C13A 1_555 1_555
C14A C15A 1_555 1_555
C16A C17A 1_555 1_555
C19A C20A 1_555 1_555

#END
