
#######################################################################
#
#                 Cambridge Crystallographic Data Centre
#                                CCDC 
#
#######################################################################
#
# If this CIF has been generated from an entry in the Cambridge 
# Structural Database, then it will include bibliographic, chemical, 
# crystal, experimental, refinement or atomic coordinate data resulting 
# from the CCDC's data processing and validation procedures.
#
#######################################################################

data_ZOKNIY
_symmetry_cell_setting           triclinic
_symmetry_space_group_name_H-M   'P -1'
_symmetry_Int_Tables_number      2
_space_group_name_Hall           '-P 1'
loop_
_symmetry_equiv_pos_site_id
_symmetry_equiv_pos_as_xyz
1 x,y,z
2 -x,-y,-z
_cell_length_a                   9.5666(10)
_cell_length_b                   10.2302(10)
_cell_length_c                   12.8725(13)
_cell_angle_alpha                74.601(4)
_cell_angle_beta                 98.422(5)
_cell_angle_gamma                98.895(5)
_cell_volume                     1192.6
loop_
_atom_site_label
_atom_site_type_symbol
_atom_site_fract_x
_atom_site_fract_y
_atom_site_fract_z
Rh1 Rh 0.38271(2) 0.50710(2) 0.019201(19)
F1 F 0.7316(3) 0.1534(3) 0.63588(16)
F2 F 0.1114(2) -0.0199(3) -0.36825(16)
O1 O 0.4305(2) 0.3819(2) 0.16726(17)
O2 O 0.6506(2) 0.3657(2) 0.13123(17)
O3 O 0.3574(3) 0.2067(3) 0.34633(19)
O4 O 0.3128(2) 0.3543(3) -0.05512(17)
O5 O 0.5322(2) 0.3384(3) -0.09211(17)
O6 O 0.5243(3) 0.0903(3) -0.13613(19)
N1 N 0.1464(3) 0.5063(3) 0.0394(2)
C1 C 0.5556(4) 0.3470(3) 0.1952(3)
C2 C 0.5960(4) 0.2845(3) 0.3117(3)
C3 C 0.4974(4) 0.2228(4) 0.3866(3)
C4 C 0.2539(4) 0.1597(4) 0.4229(3)
C5 C 0.5449(4) 0.1783(4) 0.4959(3)
C6 C 0.6882(4) 0.1966(4) 0.5280(3)
C7 C 0.7887(4) 0.2548(4) 0.4581(3)
C8 C 0.7409(4) 0.2976(4) 0.3494(3)
C9 C 0.3986(4) 0.3091(3) -0.1008(3)
C10 C 0.3288(3) 0.2180(4) -0.1705(3)
C11 C 0.3920(4) 0.1126(4) -0.1894(3)
C12 C 0.5759(4) -0.0342(4) -0.1364(3)
C13 C 0.3177(4) 0.0321(4) -0.2571(3)
C14 C 0.1840(4) 0.0598(4) -0.3036(3)
C15 C 0.1167(4) 0.1620(4) -0.2882(3)
C16 C 0.1913(4) 0.2391(4) -0.2202(3)
C17 C 0.0621(3) 0.3849(4) 0.0496(3)
C18 C 0.1192(4) 0.2612(4) 0.1041(3)
C19 C 0.0379(4) 0.1390(4) 0.1085(3)
C20 C -0.1056(4) 0.1322(4) 0.0587(3)
C21 C -0.1658(4) 0.2486(4) 0.0109(3)
C22 C -0.0851(3) 0.3791(3) 0.0065(3)
H1 H 0.1579 0.1612 0.3840
H2 H 0.2666 0.2196 0.4725
H3 H 0.2666 0.0662 0.4644
H4 H 0.4795 0.1361 0.5473
H5 H 0.8872 0.2652 0.4834
H6 H 0.8082 0.3370 0.2989
H7 H 0.6643 -0.0448 -0.0874
H8 H 0.5942 -0.0311 -0.2100
H9 H 0.5043 -0.1118 -0.1119
H10 H 0.3590 -0.0397 -0.2704
H11 H 0.0240 0.1785 -0.3225
H12 H 0.1475 0.3093 -0.2067
H13 H 0.2146 0.2640 0.1375
H14 H 0.0770 0.0570 0.1453
H15 H -0.1592 0.0459 0.0589
H16 H -0.2625 0.2431 -0.0197
N1A N -0.1464(3) 0.4937(3) -0.0394(2)
C17A C -0.0621(3) 0.6151(4) -0.0496(3)
C18A C -0.1192(4) 0.7388(4) -0.1041(3)
C19A C -0.0379(4) 0.8610(4) -0.1085(3)
C20A C 0.1056(4) 0.8678(4) -0.0587(3)
C21A C 0.1658(4) 0.7514(4) -0.0109(3)
C22A C 0.0851(3) 0.6209(3) -0.0065(3)
H13A H -0.2146 0.7360 -0.1375
H14A H -0.0770 0.9430 -0.1453
H15A H 0.1592 0.9541 -0.0589
H16A H 0.2625 0.7569 0.0197
Rh1A Rh -0.38271(2) 0.49290(2) -0.019201(19)
F1A F -0.7316(3) 0.8466(3) -0.63588(16)
F2A F -0.1114(2) 1.0199(3) 0.36825(16)
O1A O -0.4305(2) 0.6181(2) -0.16726(17)
O2A O -0.6506(2) 0.6343(2) -0.13123(17)
O3A O -0.3574(3) 0.7933(3) -0.34633(19)
O4A O -0.3128(2) 0.6457(3) 0.05512(17)
O5A O -0.5322(2) 0.6616(3) 0.09211(17)
O6A O -0.5243(3) 0.9097(3) 0.13613(19)
C1A C -0.5556(4) 0.6530(3) -0.1952(3)
C2A C -0.5960(4) 0.7155(3) -0.3117(3)
C3A C -0.4974(4) 0.7772(4) -0.3866(3)
C4A C -0.2539(4) 0.8403(4) -0.4229(3)
C5A C -0.5449(4) 0.8217(4) -0.4959(3)
C6A C -0.6882(4) 0.8034(4) -0.5280(3)
C7A C -0.7887(4) 0.7452(4) -0.4581(3)
C8A C -0.7409(4) 0.7024(4) -0.3494(3)
C9A C -0.3986(4) 0.6909(3) 0.1008(3)
C10A C -0.3288(3) 0.7820(4) 0.1705(3)
C11A C -0.3920(4) 0.8874(4) 0.1894(3)
C12A C -0.5759(4) 1.0342(4) 0.1364(3)
C13A C -0.3177(4) 0.9679(4) 0.2571(3)
C14A C -0.1840(4) 0.9402(4) 0.3036(3)
C15A C -0.1167(4) 0.8380(4) 0.2882(3)
C16A C -0.1913(4) 0.7609(4) 0.2202(3)
H1A H -0.1579 0.8388 -0.3840
H2A H -0.2666 0.7804 -0.4725
H3A H -0.2666 0.9338 -0.4644
H4A H -0.4795 0.8639 -0.5473
H5A H -0.8872 0.7348 -0.4834
H6A H -0.8082 0.6630 -0.2989
H7A H -0.6643 1.0448 0.0874
H8A H -0.5942 1.0311 0.2100
H9A H -0.5043 1.1118 0.1119
H10A H -0.3590 1.0397 0.2704
H11A H -0.0240 0.8215 0.3225
H12A H -0.1475 0.6907 0.2067
Rh1_2 Rh -0.61729(2) 0.50710(2) 0.019201(19)
Rh1A_2 Rh 0.61729(2) 0.49290(2) -0.019201(19)
O2_2 O -0.3494(2) 0.3657(2) 0.13123(17)
O2A_2 O 0.3494(2) 0.6343(2) -0.13123(17)
O5_2 O -0.4678(2) 0.3384(3) -0.09211(17)
O5A_2 O 0.4678(2) 0.6616(3) 0.09211(17)
Cl1 Cl 0.40469(13) 0.54174(13) 0.38412(10)
Cl2 Cl 0.09618(12) 0.52038(13) 0.32572(11)
C23 C 0.2655(4) 0.5543(5) 0.2796(4)
H17 H 0.2726 0.4893 0.2363
H18 H 0.2758 0.6475 0.2313
loop_
_geom_bond_atom_site_label_1
_geom_bond_atom_site_label_2
_geom_bond_site_symmetry_1
_geom_bond_site_symmetry_2
Rh1 O1 1_555 1_555
F1 C6 1_555 1_555
F2 C14 1_555 1_555
O1 C1 1_555 1_555
O2 C1 1_555 1_555
O3 C3 1_555 1_555
O4 Rh1 1_555 1_555
O5 C9 1_555 1_555
O6 C11 1_555 1_555
N1 Rh1 1_555 1_555
C1 C2 1_555 1_555
C2 C3 1_555 1_555
C3 C5 1_555 1_555
C4 O3 1_555 1_555
C5 C6 1_555 1_555
C6 C7 1_555 1_555
C7 C8 1_555 1_555
C8 C2 1_555 1_555
C9 O4 1_555 1_555
C10 C9 1_555 1_555
C11 C10 1_555 1_555
C12 O6 1_555 1_555
C13 C11 1_555 1_555
C14 C13 1_555 1_555
C15 C14 1_555 1_555
C16 C10 1_555 1_555
C17 N1 1_555 1_555
C18 C17 1_555 1_555
C19 C18 1_555 1_555
C20 C19 1_555 1_555
C21 C20 1_555 1_555
C22 C17 1_555 1_555
H1 C4 1_555 1_555
H2 C4 1_555 1_555
H3 C4 1_555 1_555
H4 C5 1_555 1_555
H5 C7 1_555 1_555
H6 C8 1_555 1_555
H7 C12 1_555 1_555
H8 C12 1_555 1_555
H9 C12 1_555 1_555
H10 C13 1_555 1_555
H11 C15 1_555 1_555
H12 C16 1_555 1_555
H13 C18 1_555 1_555
H14 C19 1_555 1_555
H15 C20 1_555 1_555
H16 C21 1_555 1_555
Cl1 C23 1_555 1_555
Cl2 C23 1_555 1_555
C23 H17 1_555 1_555
H18 C23 1_555 1_555
N1A C22 1_555 1_555
C17A N1A 1_555 1_555
C18A C17A 1_555 1_555
C19A C18A 1_555 1_555
C20A C19A 1_555 1_555
C21A C20A 1_555 1_555
C22A N1 1_555 1_555
H13A C18A 1_555 1_555
H14A C19A 1_555 1_555
H15A C20A 1_555 1_555
H16A C21A 1_555 1_555
Rh1A N1A 1_555 1_555
F1A C6A 1_555 1_555
F2A C14A 1_555 1_555
O1A Rh1A 1_555 1_555
O2A C1A 1_555 1_555
O3A C3A 1_555 1_555
O4A Rh1A 1_555 1_555
O5A C9A 1_555 1_555
O6A C11A 1_555 1_555
C1A O1A 1_555 1_555
C2A C1A 1_555 1_555
C3A C2A 1_555 1_555
C4A O3A 1_555 1_555
C5A C3A 1_555 1_555
C6A C5A 1_555 1_555
C7A C6A 1_555 1_555
C8A C2A 1_555 1_555
C9A O4A 1_555 1_555
C10A C9A 1_555 1_555
C11A C10A 1_555 1_555
C12A O6A 1_555 1_555
C13A C11A 1_555 1_555
C14A C13A 1_555 1_555
C15A C14A 1_555 1_555
C16A C10A 1_555 1_555
H1A C4A 1_555 1_555
H2A C4A 1_555 1_555
H3A C4A 1_555 1_555
H4A C5A 1_555 1_555
H5A C7A 1_555 1_555
H6A C8A 1_555 1_555
H7A C12A 1_555 1_555
H8A C12A 1_555 1_555
H9A C12A 1_555 1_555
H10A C13A 1_555 1_555
H11A C15A 1_555 1_555
H12A C16A 1_555 1_555
Rh1_2 Rh1A 1_555 1_555
Rh1A_2 Rh1 1_555 1_555
O2_2 Rh1A 1_555 1_555
O2A_2 Rh1 1_555 1_555
O5_2 Rh1A 1_555 1_555
O5A_2 Rh1 1_555 1_555
O2 Rh1A_2 1_555 1_555
O5 Rh1A_2 1_555 1_555
C15 C16 1_555 1_555
C21 C22 1_555 1_555
C17A C22A 1_555 1_555
C21A C22A 1_555 1_555
O2A Rh1_2 1_555 1_555
O5A Rh1_2 1_555 1_555
C7A C8A 1_555 1_555
C15A C16A 1_555 1_555

#END
