
#######################################################################
#
#                 Cambridge Crystallographic Data Centre
#                                CCDC 
#
#######################################################################
#
# If this CIF has been generated from an entry in the Cambridge 
# Structural Database, then it will include bibliographic, chemical, 
# crystal, experimental, refinement or atomic coordinate data resulting 
# from the CCDC's data processing and validation procedures.
#
#######################################################################

data_ZOKRAS
_symmetry_cell_setting           monoclinic
_symmetry_space_group_name_H-M   'P 21/n'
_symmetry_Int_Tables_number      14
_space_group_name_Hall           '-P 2yn'
loop_
_symmetry_equiv_pos_site_id
_symmetry_equiv_pos_as_xyz
1 x,y,z
2 1/2-x,1/2+y,1/2-z
3 -x,-y,-z
4 1/2+x,1/2-y,1/2+z
_cell_length_a                   16.150(8)
_cell_length_b                   3.886(5)
_cell_length_c                   18.716(9)
_cell_angle_alpha                90
_cell_angle_beta                 96.02(5)
_cell_angle_gamma                90
_cell_volume                     1168.12
loop_
_atom_site_label
_atom_site_type_symbol
_atom_site_fract_x
_atom_site_fract_y
_atom_site_fract_z
Ag1 Ag 1.00161(8) 0.3927(4) 0.58797(7)
O1 O 0.9389(8) 0.148(3) 0.6849(7)
O2 O 1.0522(8) -0.127(4) 0.6812(7)
N1 N 0.8828(7) 0.656(3) 0.5354(6)
N2 N 1.1161(8) 0.260(3) 0.5351(6)
C1 C 1.1802(9) 0.112(4) 0.5699(8)
C2 C 1.2539(9) 0.026(4) 0.5362(8)
C3 C 1.325(1) -0.139(4) 0.5743(8)
C4 C 1.3884(9) -0.214(4) 0.534(1)
C5 C 1.3888(9) -0.117(4) 0.4639(9)
C6 C 1.3230(9) 0.033(4) 0.4262(8)
C7 C 1.254(1) 0.121(4) 0.4637(8)
C8 C 0.8180(9) 0.723(4) 0.5708(8)
C9 C 0.994(1) -0.042(5) 0.717(1)
C10 C 0.987(1) -0.133(7) 0.791(1)
H1 H 1.177 0.042 0.618
H2 H 1.327 -0.186 0.624
H3 H 1.434 -0.335 0.558
H4 H 1.437 -0.167 0.440
H5 H 1.324 0.093 0.377
H6 H 0.819 0.666 0.620
H7 H 1.044 -0.195 0.789
H8 H 0.956 -0.333 0.798
H9 H 0.984 0.024 0.829
O2_2 O 1.0522(8) 0.873(4) 0.6812(7)
Ag1_2 Ag 1.00161(8) -0.6073(4) 0.58797(7)
N2B N 0.8839(8) 0.740(3) 0.4649(6)
N1B N 1.1172(7) 0.344(3) 0.4646(6)
C8B C 1.1820(9) 0.277(4) 0.4292(8)
C7B C 0.746(1) 0.879(4) 0.5363(8)
Ag1B Ag 0.99839(8) 0.6073(4) 0.41203(7)
C1B C 0.8198(9) 0.888(4) 0.4301(8)
H6B H 1.181 0.334 0.380
C2B C 0.7461(9) 0.974(4) 0.4638(8)
C6B C 0.6770(9) 0.967(4) 0.5738(8)
H1B H 0.823 0.958 0.382
C3B C 0.675(1) 1.139(4) 0.4257(8)
C5B C 0.6112(9) 1.117(4) 0.5361(9)
H5B H 0.676 0.907 0.623
C4B C 0.6116(9) 1.214(4) 0.466(1)
H2B H 0.673 1.186 0.376
H4B H 0.563 1.167 0.560
H3B H 0.566 1.335 0.442
O1B O 1.0611(8) 0.852(3) 0.3151(7)
O2B O 0.9478(8) 0.127(4) 0.3188(7)
O2B_2 O 0.9478(8) 1.127(4) 0.3188(7)
C9B C 1.006(1) 1.042(5) 0.283(1)
Ag1B_2 Ag 0.99839(8) 1.6073(4) 0.41203(7)
C10B C 1.013(1) 1.133(7) 0.209(1)
H7B H 0.956 1.195 0.211
H8B H 1.044 1.333 0.202
H9B H 1.016 0.976 0.171
O3 O 1.200(1) -0.34(1) 0.757(2)
O4 O 0.798(1) 0.26(1) 0.744(1)
O5? O 1.172(5) -0.54(1) 0.754(2)
O6? O 0.813(5) 0.21(3) 0.770(3)
loop_
_geom_bond_atom_site_label_1
_geom_bond_atom_site_label_2
_geom_bond_site_symmetry_1
_geom_bond_site_symmetry_2
Ag1 O1 1_555 1_555
O1 C9 1_555 1_555
O2 Ag1 1_555 1_555
N1 Ag1 1_555 1_555
N2 Ag1 1_555 1_555
C1 N2 1_555 1_555
C2 C1 1_555 1_555
C3 C2 1_555 1_555
C4 C3 1_555 1_555
C5 C4 1_555 1_555
C6 C5 1_555 1_555
C7 C2 1_555 1_555
C8 N1 1_555 1_555
C9 O2 1_555 1_555
C10 C9 1_555 1_555
H1 C1 1_555 1_555
H2 C3 1_555 1_555
H3 C4 1_555 1_555
H4 C5 1_555 1_555
H5 C6 1_555 1_555
H6 C8 1_555 1_555
H7 C10 1_555 1_555
H8 C10 1_555 1_555
H9 C10 1_555 1_555
O2_2 Ag1 1_555 1_555
Ag1_2 O2 1_555 1_555
N2B N1 1_555 1_555
N1B N2 1_555 1_555
C8B C7 1_555 1_555
C7B C8 1_555 1_555
Ag1B N2B 1_555 1_555
C1B N2B 1_555 1_555
H6B C8B 1_555 1_555
C2B C7B 1_555 1_555
C6B C7B 1_555 1_555
H1B C1B 1_555 1_555
C3B C2B 1_555 1_555
C5B C6B 1_555 1_555
H5B C6B 1_555 1_555
C4B C3B 1_555 1_555
H2B C3B 1_555 1_555
H4B C5B 1_555 1_555
H3B C4B 1_555 1_555
O1B Ag1B 1_555 1_555
O2B Ag1B 1_555 1_555
O2B_2 Ag1B 1_555 1_555
C9B O1B 1_555 1_555
Ag1B_2 O2B_2 1_555 1_555
C10B C9B 1_555 1_555
H7B C10B 1_555 1_555
H8B C10B 1_555 1_555
H9B C10B 1_555 1_555
C6 C7 1_555 1_555
N1B C8B 1_555 1_555
N1B Ag1B 1_555 1_555
C1B C2B 1_555 1_555
C5B C4B 1_555 1_555
O2B_2 C9B 1_555 1_555

#END
