
#######################################################################
#
#                 Cambridge Crystallographic Data Centre
#                                CCDC 
#
#######################################################################
#
# If this CIF has been generated from an entry in the Cambridge 
# Structural Database, then it will include bibliographic, chemical, 
# crystal, experimental, refinement or atomic coordinate data resulting 
# from the CCDC's data processing and validation procedures.
#
#######################################################################

data_ZOLVIH
_symmetry_cell_setting           triclinic
_symmetry_space_group_name_H-M   'P -1'
_symmetry_Int_Tables_number      2
_space_group_name_Hall           '-P 1'
loop_
_symmetry_equiv_pos_site_id
_symmetry_equiv_pos_as_xyz
1 x,y,z
2 -x,-y,-z
_cell_length_a                   11.2012(8)
_cell_length_b                   12.2477(8)
_cell_length_c                   12.7295(10)
_cell_angle_alpha                72.127(11)
_cell_angle_beta                 72.683(8)
_cell_angle_gamma                82.724(9)
_cell_volume                     1585.53
loop_
_atom_site_label
_atom_site_type_symbol
_atom_site_fract_x
_atom_site_fract_y
_atom_site_fract_z
Cd1 Cd 1.0000 0.0000 0.0000
O1 O 0.8308(6) 0.0928(5) 0.0987(5)
H1 H 0.7935 0.0547 0.1654
H2 H 0.8255 0.1603 0.1037
O2 O 0.9533(6) -0.1640(5) 0.1436(5)
H3 H 0.8813 -0.1680 0.1838
H4 H 0.9720 -0.2253 0.1291
N1 N 1.1261(7) 0.0452(6) 0.1073(6)
C1 C 1.0534(8) 0.0251(7) 0.2308(7)
H5 H 0.9798 0.0764 0.2359
H6 H 1.0255 -0.0531 0.2613
N2 N 1.1282(6) 0.0441(6) 0.3012(6)
C2 C 1.2407(8) -0.0346(8) 0.2903(7)
H7 H 1.2916 -0.0235 0.3357
H8 H 1.2147 -0.1134 0.3205
N3 N 1.3156(7) -0.0149(7) 0.1712(6)
C3 C 1.2391(8) -0.0336(8) 0.1029(7)
H9 H 1.2134 -0.1124 0.1319
H10 H 1.2889 -0.0211 0.0238
C4 C 1.1679(9) 0.1662(7) 0.0629(7)
H11 H 1.2166 0.1810 -0.0168
H12 H 1.0953 0.2187 0.0664
N4 N 1.2444(7) 0.1867(6) 0.1310(6)
C5 C 1.1702(9) 0.1657(7) 0.2513(7)
H13 H 1.0976 0.2182 0.2560
H14 H 1.2201 0.1804 0.2957
C6 C 1.3537(8) 0.1070(8) 0.1249(8)
H15 H 1.4051 0.1207 0.1686
H16 H 1.4035 0.1208 0.0457
Cd2 Cd 1.0000 0.0000 0.5000
O3 O 0.9526(7) -0.1619(5) 0.4741(6)
H17 H 0.8709 -0.1621 0.4973
H18 H 0.9734 -0.2266 0.5090
O4 O 0.8290(6) 0.0894(6) 0.4388(6)
H19 H 0.8214 0.1588 0.3961
H20 H 0.7988 0.0422 0.4083
O1A O 1.1692(6) -0.0928(5) -0.0987(5)
H1A H 1.2065 -0.0547 -0.1654
H2A H 1.1745 -0.1603 -0.1037
O2A O 1.0467(6) 0.1640(5) -0.1436(5)
H3A H 1.1187 0.1680 -0.1838
H4A H 1.0280 0.2253 -0.1291
N1A N 0.8739(7) -0.0452(6) -0.1073(6)
C1A C 0.9466(8) -0.0251(7) -0.2308(7)
H5A H 1.0202 -0.0764 -0.2359
H6A H 0.9745 0.0531 -0.2613
N2A N 0.8718(6) -0.0441(6) -0.3012(6)
C2A C 0.7593(8) 0.0346(8) -0.2903(7)
H7A H 0.7084 0.0235 -0.3357
H8A H 0.7853 0.1134 -0.3205
N3A N 0.6844(7) 0.0149(7) -0.1712(6)
C3A C 0.7609(8) 0.0336(8) -0.1029(7)
H9A H 0.7866 0.1124 -0.1319
H10A H 0.7111 0.0211 -0.0238
C4A C 0.8321(9) -0.1662(7) -0.0629(7)
H11A H 0.7834 -0.1810 0.0168
H12A H 0.9047 -0.2187 -0.0664
N4A N 0.7556(7) -0.1867(6) -0.1310(6)
C5A C 0.8298(9) -0.1657(7) -0.2513(7)
H13A H 0.9024 -0.2182 -0.2560
H14A H 0.7799 -0.1804 -0.2957
C6A C 0.6463(8) -0.1070(8) -0.1249(8)
H15A H 0.5949 -0.1207 -0.1686
H16A H 0.5965 -0.1208 -0.0457
O3A O 1.0474(7) 0.1619(5) 0.5259(6)
H17A H 1.1291 0.1621 0.5027
H18A H 1.0266 0.2266 0.4910
O4A O 1.1710(6) -0.0894(6) 0.5612(6)
H19A H 1.1786 -0.1588 0.6039
H20A H 1.2012 -0.0422 0.5917
N2A_2 N 0.8718(6) -0.0441(6) 0.6988(6)
Cd2_2 Cd 1.0000 0.0000 -0.5000
Cd3 Cd 0.5000 0.5000 0.0000
O5 O 0.6606(6) 0.5926(5) 0.0069(5)
H21 H 0.6942 0.5614 0.0581
H22 H 0.6879 0.6564 -0.0330
O6 O 0.5705(6) 0.3310(5) 0.1076(5)
H23 H 0.6428 0.3271 0.1129
H24 H 0.5354 0.2829 0.1688
N5 N 0.3744(6) 0.5386(6) 0.1742(6)
C7 C 0.4486(8) 0.5155(7) 0.2578(7)
H25 H 0.5206 0.5637 0.2248
H26 H 0.4792 0.4361 0.2729
N6 N 0.3739(7) 0.5379(6) 0.3683(6)
C8 C 0.2628(9) 0.4642(8) 0.4166(7)
H27 H 0.2907 0.3840 0.4335
H28 H 0.2124 0.4786 0.4878
N7 N 0.1864(7) 0.4876(7) 0.3357(7)
C9 C 0.2629(8) 0.4667(8) 0.2275(8)
H29 H 0.2122 0.4827 0.1743
H30 H 0.2901 0.3864 0.2420
C10 C 0.3299(9) 0.6630(8) 0.1548(8)
H31 H 0.4018 0.7112 0.1225
H32 H 0.2809 0.6822 0.0998
N8 N 0.2545(8) 0.6865(6) 0.2603(6)
C11 C 0.3296(9) 0.6610(7) 0.3417(7)
H33 H 0.2799 0.6779 0.4120
H34 H 0.4012 0.7096 0.3096
C12 C 0.1472(9) 0.6132(9) 0.3093(8)
H35 H 0.0967 0.6304 0.2557
H36 H 0.0960 0.6297 0.3793
Cd4 Cd 0.5000 0.5000 0.5000
O7 O 0.5605(6) 0.3331(5) 0.4549(6)
H37 H 0.6335 0.3152 0.4199
H38 H 0.5335 0.2655 0.5076
O8 O 0.6636(6) 0.5870(6) 0.3516(5)
H39 H 0.6804 0.6530 0.3462
H40 H 0.6954 0.5575 0.2994
O5A O 0.3394(6) 0.4074(5) -0.0069(5)
H21A H 0.3058 0.4386 -0.0581
H22A H 0.3121 0.3436 0.0330
O6A O 0.4295(6) 0.6690(5) -0.1076(5)
H23A H 0.3572 0.6729 -0.1129
H24A H 0.4646 0.7171 -0.1688
N5A N 0.6256(6) 0.4614(6) -0.1742(6)
C7A C 0.5514(8) 0.4845(7) -0.2578(7)
H25A H 0.4794 0.4363 -0.2248
H26A H 0.5208 0.5639 -0.2729
N6A N 0.6261(7) 0.4621(6) -0.3683(6)
C8A C 0.7372(9) 0.5358(8) -0.4166(7)
H27A H 0.7093 0.6160 -0.4335
H28A H 0.7876 0.5214 -0.4878
N7A N 0.8136(7) 0.5124(7) -0.3357(7)
C9A C 0.7371(8) 0.5333(8) -0.2275(8)
H29A H 0.7878 0.5173 -0.1743
H30A H 0.7099 0.6136 -0.2420
C10A C 0.6701(9) 0.3370(8) -0.1548(8)
H31A H 0.5982 0.2888 -0.1225
H32A H 0.7191 0.3178 -0.0998
N8A N 0.7455(8) 0.3135(6) -0.2603(6)
C11A C 0.6704(9) 0.3390(7) -0.3417(7)
H33A H 0.7201 0.3221 -0.4120
H34A H 0.5988 0.2904 -0.3096
C12A C 0.8528(9) 0.3868(9) -0.3093(8)
H35A H 0.9033 0.3696 -0.2557
H36A H 0.9040 0.3703 -0.3793
O7A O 0.4395(6) 0.6669(5) 0.5451(6)
H37A H 0.3665 0.6848 0.5801
H38A H 0.4665 0.7345 0.4924
O8A O 0.3364(6) 0.4130(6) 0.6484(5)
H39A H 0.3196 0.3470 0.6538
H40A H 0.3046 0.4425 0.7006
N6A_2 N 0.6261(7) 0.4621(6) 0.6317(6)
Cd4_2 Cd 0.5000 0.5000 -0.5000
S1 S 1.6697(2) -0.1215(2) 0.3819(2)
O9 O 1.7060(8) -0.0007(6) 0.3218(6)
O10 O 1.7064(7) -0.1591(7) 0.4892(7)
O11 O 1.5351(7) -0.1292(7) 0.4063(7)
O12 O 1.7332(9) -0.1930(7) 0.3061(7)
S2 S 0.8374(2) 0.37528(19) 0.1933(2)
O13 O 0.7699(7) 0.4893(6) 0.1776(6)
O14 O 0.8124(7) 0.3176(6) 0.1163(7)
O15 O 0.7915(8) 0.3087(7) 0.3139(7)
O16 O 0.9707(7) 0.3896(8) 0.1666(8)
O17 O 1.0327(7) -0.3669(6) 0.5793(6)
H41 H 1.0815 -0.3507 0.6087
H42 H 0.9681 -0.4026 0.6342
O18 O 1.0135(8) -0.3646(6) 0.0974(6)
H43 H 1.0641 -0.3508 0.0354
H44 H 1.0005 -0.4382 0.1185
O19 O 0.4872(7) 0.1646(7) 0.3081(6)
H45 H 0.5479 0.1174 0.3070
H46 H 0.4407 0.1634 0.3770
O20 O 1.5534(7) -0.1455(8) 0.1536(7)
H47 H 1.4875 -0.1093 0.1583
H48 H 1.5714 -0.1583 0.2200
loop_
_geom_bond_atom_site_label_1
_geom_bond_atom_site_label_2
_geom_bond_site_symmetry_1
_geom_bond_site_symmetry_2
Cd1 O1 1_555 1_555
O1 H1 1_555 1_555
H2 O1 1_555 1_555
O2 Cd1 1_555 1_555
H3 O2 1_555 1_555
H4 O2 1_555 1_555
N1 Cd1 1_555 1_555
C1 N1 1_555 1_555
H5 C1 1_555 1_555
H6 C1 1_555 1_555
N2 C1 1_555 1_555
C2 N2 1_555 1_555
H7 C2 1_555 1_555
H8 C2 1_555 1_555
N3 C2 1_555 1_555
C3 N1 1_555 1_555
H9 C3 1_555 1_555
H10 C3 1_555 1_555
C4 N1 1_555 1_555
H11 C4 1_555 1_555
H12 C4 1_555 1_555
N4 C4 1_555 1_555
C5 N2 1_555 1_555
H13 C5 1_555 1_555
H14 C5 1_555 1_555
C6 N3 1_555 1_555
H15 C6 1_555 1_555
H16 C6 1_555 1_555
Cd2 N2 1_555 1_555
O3 Cd2 1_555 1_555
H17 O3 1_555 1_555
H18 O3 1_555 1_555
O4 Cd2 1_555 1_555
H19 O4 1_555 1_555
H20 O4 1_555 1_555
Cd3 O5 1_555 1_555
O5 H21 1_555 1_555
H22 O5 1_555 1_555
O6 Cd3 1_555 1_555
H23 O6 1_555 1_555
H24 O6 1_555 1_555
N5 Cd3 1_555 1_555
C7 N5 1_555 1_555
H25 C7 1_555 1_555
H26 C7 1_555 1_555
N6 C7 1_555 1_555
C8 N6 1_555 1_555
H27 C8 1_555 1_555
H28 C8 1_555 1_555
N7 C8 1_555 1_555
C9 N5 1_555 1_555
H29 C9 1_555 1_555
H30 C9 1_555 1_555
C10 N5 1_555 1_555
H31 C10 1_555 1_555
H32 C10 1_555 1_555
N8 C10 1_555 1_555
C11 N6 1_555 1_555
H33 C11 1_555 1_555
H34 C11 1_555 1_555
C12 N7 1_555 1_555
H35 C12 1_555 1_555
H36 C12 1_555 1_555
Cd4 N6 1_555 1_555
O7 Cd4 1_555 1_555
H37 O7 1_555 1_555
H38 O7 1_555 1_555
O8 Cd4 1_555 1_555
H39 O8 1_555 1_555
H40 O8 1_555 1_555
S1 O9 1_555 1_555
O10 S1 1_555 1_555
O11 S1 1_555 1_555
O12 S1 1_555 1_555
S2 O13 1_555 1_555
O14 S2 1_555 1_555
O15 S2 1_555 1_555
O16 S2 1_555 1_555
O17 H41 1_555 1_555
H42 O17 1_555 1_555
O18 H43 1_555 1_555
H44 O18 1_555 1_555
O19 H45 1_555 1_555
H46 O19 1_555 1_555
O20 H47 1_555 1_555
H48 O20 1_555 1_555
O1A Cd1 1_555 1_555
H1A O1A 1_555 1_555
H2A O1A 1_555 1_555
O2A Cd1 1_555 1_555
H3A O2A 1_555 1_555
H4A O2A 1_555 1_555
N1A Cd1 1_555 1_555
C1A N1A 1_555 1_555
H5A C1A 1_555 1_555
H6A C1A 1_555 1_555
N2A C1A 1_555 1_555
C2A N2A 1_555 1_555
H7A C2A 1_555 1_555
H8A C2A 1_555 1_555
N3A C2A 1_555 1_555
C3A N1A 1_555 1_555
H9A C3A 1_555 1_555
H10A C3A 1_555 1_555
C4A N1A 1_555 1_555
H11A C4A 1_555 1_555
H12A C4A 1_555 1_555
N4A C4A 1_555 1_555
C5A N2A 1_555 1_555
H13A C5A 1_555 1_555
H14A C5A 1_555 1_555
C6A N3A 1_555 1_555
H15A C6A 1_555 1_555
H16A C6A 1_555 1_555
O3A Cd2 1_555 1_555
H17A O3A 1_555 1_555
H18A O3A 1_555 1_555
O4A Cd2 1_555 1_555
H19A O4A 1_555 1_555
H20A O4A 1_555 1_555
N2A_2 Cd2 1_555 1_555
Cd2_2 N2A 1_555 1_555
O5A Cd3 1_555 1_555
H21A O5A 1_555 1_555
H22A O5A 1_555 1_555
O6A Cd3 1_555 1_555
H23A O6A 1_555 1_555
H24A O6A 1_555 1_555
N5A Cd3 1_555 1_555
C7A N5A 1_555 1_555
H25A C7A 1_555 1_555
H26A C7A 1_555 1_555
N6A C7A 1_555 1_555
C8A N6A 1_555 1_555
H27A C8A 1_555 1_555
H28A C8A 1_555 1_555
N7A C8A 1_555 1_555
C9A N5A 1_555 1_555
H29A C9A 1_555 1_555
H30A C9A 1_555 1_555
C10A N5A 1_555 1_555
H31A C10A 1_555 1_555
H32A C10A 1_555 1_555
N8A C10A 1_555 1_555
C11A N6A 1_555 1_555
H33A C11A 1_555 1_555
H34A C11A 1_555 1_555
C12A N7A 1_555 1_555
H35A C12A 1_555 1_555
H36A C12A 1_555 1_555
O7A Cd4 1_555 1_555
H37A O7A 1_555 1_555
H38A O7A 1_555 1_555
O8A Cd4 1_555 1_555
H39A O8A 1_555 1_555
H40A O8A 1_555 1_555
N6A_2 Cd4 1_555 1_555
Cd4_2 N6A 1_555 1_555
N3 C3 1_555 1_555
N4 C5 1_555 1_555
N4 C6 1_555 1_555
N7 C9 1_555 1_555
N8 C11 1_555 1_555
N8 C12 1_555 1_555
N3A C3A 1_555 1_555
N4A C5A 1_555 1_555
N4A C6A 1_555 1_555
N7A C9A 1_555 1_555
N8A C11A 1_555 1_555
N8A C12A 1_555 1_555

#END
