
#######################################################################
#
#                 Cambridge Crystallographic Data Centre
#                                CCDC 
#
#######################################################################
#
# If this CIF has been generated from an entry in the Cambridge 
# Structural Database, then it will include bibliographic, chemical, 
# crystal, experimental, refinement or atomic coordinate data resulting 
# from the CCDC's data processing and validation procedures.
#
#######################################################################

data_ZOMHEQ
_symmetry_cell_setting           triclinic
_symmetry_space_group_name_H-M   'P -1'
_symmetry_Int_Tables_number      2
_space_group_name_Hall           '-P 1'
loop_
_symmetry_equiv_pos_site_id
_symmetry_equiv_pos_as_xyz
1 x,y,z
2 -x,-y,-z
_cell_length_a                   9.4743(3)
_cell_length_b                   12.6085(4)
_cell_length_c                   20.6900(6)
_cell_angle_alpha                99.6626(9)
_cell_angle_beta                 99.4642(8)
_cell_angle_gamma                105.6678(9)
_cell_volume                     2287.96
loop_
_atom_site_label
_atom_site_type_symbol
_atom_site_fract_x
_atom_site_fract_y
_atom_site_fract_z
O1 O 0.23794(16) 0.24721(13) 0.54652(8)
O2 O 0.39261(18) 0.27868(14) 0.47760(8)
O3 O 0.7188(2) 0.69645(17) 0.80694(10)
O4 O 0.8659(2) 0.58792(17) 0.79701(9)
O5 O -0.09069(16) 0.10820(14) 0.49649(8)
O6 O -0.23819(17) 0.12087(15) 0.40422(9)
O7 O 0.8050(3) 0.9123(2) 0.93275(12)
O8 O 0.6341(3) 0.7657(2) 0.94575(13)
C1 C 0.4939(2) 0.35790(17) 0.59493(10)
H1 H 0.5909 0.3505 0.5848
C2 C 0.5011(2) 0.48254(17) 0.60199(10)
H2 H 0.5162 0.5056 0.5596
H3 H 0.4044 0.4917 0.6100
C3 C 0.6287(2) 0.55883(18) 0.65988(11)
H4 H 0.6269 0.6379 0.6645
H5 H 0.7262 0.5557 0.6496
C4 C 0.6150(3) 0.52290(19) 0.72613(11)
H6 H 0.5184 0.5302 0.7367
C5 C 0.6095(3) 0.3989(2) 0.71856(12)
H7 H 0.7058 0.3904 0.7096
H8 H 0.5966 0.3755 0.7611
C6 C 0.4802(3) 0.3223(2) 0.66119(12)
H9 H 0.4811 0.2431 0.6567
H10 H 0.3833 0.3263 0.6718
C7 C 0.3692(2) 0.28808(16) 0.53497(10)
C8 C 0.7444(3) 0.6058(2) 0.78130(12)
C9 C -0.4997(2) -0.0162(2) 0.42778(11)
H11 H -0.4886 -0.0618 0.3861
H12 H -0.5221 0.0519 0.4169
C10 C -0.3530(2) 0.01940(17) 0.48071(11)
H13 H -0.3316 -0.0509 0.4896
C11 C -0.3696(2) 0.08568(18) 0.54679(11)
H14 H -0.3880 0.1570 0.5397
H15 H -0.2751 0.1052 0.5811
C12 C -0.2200(2) 0.08793(17) 0.45775(11)
C13 C 0.5017(4) 0.8956(3) 1.02294(17)
H16 H 0.5439 0.8579 1.0561
H17 H 0.4215 0.8369 0.9882
C14 C 0.6244(3) 0.9528(3) 0.99027(15)
H18 H 0.7067 1.0080 1.0268
C15 C 0.5660(4) 1.0202(3) 0.94188(16)
H19 H 0.6501 1.0614 0.9239
H20 H 0.4889 0.9670 0.9035
C16 C 0.6918(3) 0.8703(3) 0.95377(15)
C17 C 0.1463(2) 0.43914(18) 0.47098(11)
H21 H 0.2157 0.4442 0.5110
C18 C 0.1343(2) 0.53813(19) 0.45394(12)
H22 H 0.1942 0.6092 0.4819
C19 C 0.0334(2) 0.53287(18) 0.39527(11)
C20 C -0.0505(3) 0.4256(2) 0.35645(12)
H23 H -0.1203 0.4180 0.3160
C21 C -0.0316(3) 0.33060(19) 0.37702(11)
H24 H -0.0895 0.2584 0.3498
C22 C 0.0137(3) 0.6375(2) 0.37394(14)
H25 H 0.0128 0.6298 0.3259
H26 H 0.0970 0.7035 0.3998
H27 H -0.0815 0.6471 0.3822
C23 C 0.0035(2) -0.02991(18) 0.36883(11)
H28 H -0.0700 -0.0514 0.3943
C24 C 0.0146(3) -0.1103(2) 0.31730(12)
H29 H -0.0518 -0.1852 0.3073
C25 C 0.1230(3) -0.0815(2) 0.28009(12)
C26 C 0.2125(3) 0.0302(2) 0.29506(12)
H30 H 0.2857 0.0540 0.2698
C27 C 0.1949(3) 0.1063(2) 0.34658(11)
H31 H 0.2573 0.1825 0.3561
C28 C 0.1437(5) -0.1688(3) 0.22573(18)
H32 H 0.1543 -0.1378 0.1858
H33 H 0.0561 -0.2366 0.2141
H34 H 0.2343 -0.1886 0.2421
C29 C 0.9313(4) 0.7089(3) 1.00828(13)
H35 H 0.8449 0.7287 1.0164
C30 C 1.0036(4) 0.6628(3) 1.05443(13)
H36 H 0.9656 0.6503 1.0931
C31 C 1.1303(4) 0.6348(2) 1.04469(13)
C32 C 1.1768(3) 0.6511(3) 0.98573(14)
H37 H 1.2615 0.6302 0.9760
C33 C 1.0999(3) 0.6974(3) 0.94160(13)
H38 H 1.1346 0.7088 0.9020
C34 C 1.2145(5) 0.5871(3) 1.09473(16)
H39 H 1.3020 0.6474 1.1232
H40 H 1.2481 0.5279 1.0707
H41 H 1.1482 0.5548 1.1229
C35 C 1.0737(3) 1.0056(2) 0.86566(13)
H42 H 1.0260 1.0383 0.8970
C36 C 1.1813(4) 1.0762(3) 0.84179(15)
H43 H 1.2051 1.1558 0.8562
C37 C 1.2554(3) 1.0308(3) 0.79647(14)
C38 C 1.2142(3) 0.9144(3) 0.77720(15)
H44 H 1.2619 0.8795 0.7468
C39 C 1.1029(3) 0.8483(2) 0.80246(13)
H45 H 1.0746 0.7685 0.7880
C40 C 1.3768(5) 1.1052(4) 0.7709(2)
H46 H 1.4750 1.1159 0.7995
H47 H 1.3600 1.1788 0.7717
H48 H 1.3743 1.0695 0.7247
N1 N 0.06463(19) 0.33555(15) 0.43370(9)
N2 N 0.09353(19) 0.07796(15) 0.38424(9)
N3 N 0.9792(2) 0.72689(18) 0.95180(9)
N4 N 1.0336(2) 0.89300(18) 0.84655(10)
Zn1 Zn 0.07933(2) 0.190864(19) 0.463701(11)
Zn2 Zn 0.87035(3) 0.79341(2) 0.884008(13)
O5A O -0.90931(16) -0.10820(14) 0.50351(8)
O6A O -0.76181(17) -0.12087(15) 0.59578(9)
C9A C -0.5003(2) 0.0162(2) 0.57222(11)
H11A H -0.5114 0.0618 0.6139
H12A H -0.4779 -0.0519 0.5831
C10A C -0.6470(2) -0.01940(17) 0.51929(11)
H13A H -0.6684 0.0509 0.5104
C11A C -0.6304(2) -0.08568(18) 0.45321(11)
H14A H -0.6120 -0.1570 0.4603
H15A H -0.7249 -0.1052 0.4189
C12A C -0.7800(2) -0.08793(17) 0.54225(11)
O7A O 0.1950(3) 1.0877(2) 1.06725(12)
O8A O 0.3659(3) 1.2343(2) 1.05425(13)
C13A C 0.4983(4) 1.1044(3) 0.97706(17)
H16A H 0.4561 1.1421 0.9439
H17A H 0.5785 1.1631 1.0118
C14A C 0.3756(3) 1.0472(3) 1.00973(15)
H18A H 0.2933 0.9920 0.9732
C15A C 0.4340(4) 0.9798(3) 1.05812(16)
H19A H 0.3499 0.9386 1.0761
H20A H 0.5111 1.0330 1.0965
C16A C 0.3082(3) 1.1297(3) 1.04623(15)
O1A O -1.23794(16) -0.24721(13) 0.45348(8)
O2A O -1.39261(18) -0.27868(14) 0.52240(8)
O3A O -1.7188(2) -0.69645(17) 0.19306(10)
O4A O -1.8659(2) -0.58792(17) 0.20299(9)
C1A C -1.4939(2) -0.35790(17) 0.40507(10)
H1A H -1.5909 -0.3505 0.4152
C2A C -1.5011(2) -0.48254(17) 0.39801(10)
H2A H -1.5162 -0.5056 0.4404
H3A H -1.4044 -0.4917 0.3900
C3A C -1.6287(2) -0.55883(18) 0.34012(11)
H4A H -1.6269 -0.6379 0.3355
H5A H -1.7262 -0.5557 0.3504
C4A C -1.6150(3) -0.52290(19) 0.27387(11)
H6A H -1.5184 -0.5302 0.2633
C5A C -1.6095(3) -0.3989(2) 0.28144(12)
H7A H -1.7058 -0.3904 0.2904
H8A H -1.5966 -0.3755 0.2389
C6A C -1.4802(3) -0.3223(2) 0.33881(12)
H9A H -1.4811 -0.2431 0.3433
H10A H -1.3833 -0.3263 0.3282
C7A C -1.3692(2) -0.28808(16) 0.46503(10)
C8A C -1.7444(3) -0.6058(2) 0.21870(12)
C17A C -1.1463(2) -0.43914(18) 0.52902(11)
H21A H -1.2157 -0.4442 0.4890
C18A C -1.1343(2) -0.53813(19) 0.54606(12)
H22A H -1.1942 -0.6092 0.5181
C19A C -1.0334(2) -0.53287(18) 0.60473(11)
C20A C -0.9495(3) -0.4256(2) 0.64355(12)
H23A H -0.8797 -0.4180 0.6840
C21A C -0.9684(3) -0.33060(19) 0.62298(11)
H24A H -0.9105 -0.2584 0.6502
C22A C -1.0137(3) -0.6375(2) 0.62606(14)
H25A H -1.0128 -0.6298 0.6741
H26A H -1.0970 -0.7035 0.6002
H27A H -0.9185 -0.6471 0.6178
C23A C -1.0035(2) 0.02991(18) 0.63117(11)
H28A H -0.9300 0.0514 0.6057
C24A C -1.0146(3) 0.1103(2) 0.68270(12)
H29A H -0.9482 0.1852 0.6927
C25A C -1.1230(3) 0.0815(2) 0.71991(12)
C26A C -1.2125(3) -0.0302(2) 0.70494(12)
H30A H -1.2857 -0.0540 0.7302
C27A C -1.1949(3) -0.1063(2) 0.65342(11)
H31A H -1.2573 -0.1825 0.6439
C28A C -1.1437(5) 0.1688(3) 0.77427(18)
H32A H -1.1543 0.1378 0.8142
H33A H -1.0561 0.2366 0.7859
H34A H -1.2343 0.1886 0.7579
C29A C -1.9313(4) -0.7089(3) -0.00828(13)
H35A H -1.8449 -0.7287 -0.0164
C30A C -2.0036(4) -0.6628(3) -0.05443(13)
H36A H -1.9656 -0.6503 -0.0931
C31A C -2.1303(4) -0.6348(2) -0.04469(13)
C32A C -2.1768(3) -0.6511(3) 0.01427(14)
H37A H -2.2615 -0.6302 0.0240
C33A C -2.0999(3) -0.6974(3) 0.05840(13)
H38A H -2.1346 -0.7088 0.0980
C34A C -2.2145(5) -0.5871(3) -0.09473(16)
H39A H -2.3020 -0.6474 -0.1232
H40A H -2.2481 -0.5279 -0.0707
H41A H -2.1482 -0.5548 -0.1229
C35A C -2.0737(3) -1.0056(2) 0.13434(13)
H42A H -2.0260 -1.0383 0.1030
C36A C -2.1813(4) -1.0762(3) 0.15821(15)
H43A H -2.2051 -1.1558 0.1438
C37A C -2.2554(3) -1.0308(3) 0.20353(14)
C38A C -2.2142(3) -0.9144(3) 0.22280(15)
H44A H -2.2619 -0.8795 0.2532
C39A C -2.1029(3) -0.8483(2) 0.19754(13)
H45A H -2.0746 -0.7685 0.2120
C40A C -2.3768(5) -1.1052(4) 0.2291(2)
H46A H -2.4750 -1.1159 0.2005
H47A H -2.3600 -1.1788 0.2283
H48A H -2.3743 -1.0695 0.2753
N1A N -1.06463(19) -0.33555(15) 0.56630(9)
N2A N -1.09353(19) -0.07796(15) 0.61576(9)
N3A N -1.9792(2) -0.72689(18) 0.04820(9)
N4A N -2.0336(2) -0.89300(18) 0.15345(10)
Zn1A Zn -1.07933(2) -0.190864(19) 0.536299(11)
Zn2A Zn -1.87035(3) -0.79341(2) 0.115992(13)
O7A_2 O -1.8050(3) -0.9123(2) 0.06725(12)
Zn2A_2 Zn 0.12965(3) 1.20659(2) 1.115992(13)
O9 O 0.6020(2) 0.27890(17) 0.39435(10)
O10 O 0.5230(3) 0.2311(2) 0.25326(12)
O11 O 0.8996(4) 0.5133(3) 0.19543(15)
O12 O 0.6528(3) 0.3151(4) 0.15549(16)
O13 O 0.7112(8) 0.6387(5) 0.1649(4)
O14 O 0.5525(7) 0.6105(6) 0.0289(5)
loop_
_geom_bond_atom_site_label_1
_geom_bond_atom_site_label_2
_geom_bond_site_symmetry_1
_geom_bond_site_symmetry_2
O1 C7 1_555 1_555
O2 C7 1_555 1_555
O3 C8 1_555 1_555
O4 C8 1_555 1_555
O5 C12 1_555 1_555
O6 C12 1_555 1_555
O7 C16 1_555 1_555
O8 C16 1_555 1_555
C1 H1 1_555 1_555
C2 C1 1_555 1_555
H2 C2 1_555 1_555
H3 C2 1_555 1_555
C3 C2 1_555 1_555
H4 C3 1_555 1_555
H5 C3 1_555 1_555
C4 C3 1_555 1_555
H6 C4 1_555 1_555
C5 C4 1_555 1_555
H7 C5 1_555 1_555
H8 C5 1_555 1_555
C6 C1 1_555 1_555
H9 C6 1_555 1_555
H10 C6 1_555 1_555
C7 C1 1_555 1_555
C8 C4 1_555 1_555
C9 H11 1_555 1_555
H12 C9 1_555 1_555
C10 C9 1_555 1_555
H13 C10 1_555 1_555
C11 C10 1_555 1_555
H14 C11 1_555 1_555
H15 C11 1_555 1_555
C12 C10 1_555 1_555
C13 H16 1_555 1_555
H17 C13 1_555 1_555
C14 C13 1_555 1_555
H18 C14 1_555 1_555
C15 C14 1_555 1_555
H19 C15 1_555 1_555
H20 C15 1_555 1_555
C16 C14 1_555 1_555
C17 H21 1_555 1_555
C18 C17 1_555 1_555
H22 C18 1_555 1_555
C19 C18 1_555 1_555
C20 C19 1_555 1_555
H23 C20 1_555 1_555
C21 C20 1_555 1_555
H24 C21 1_555 1_555
C22 C19 1_555 1_555
H25 C22 1_555 1_555
H26 C22 1_555 1_555
H27 C22 1_555 1_555
C23 H28 1_555 1_555
C24 C23 1_555 1_555
H29 C24 1_555 1_555
C25 C24 1_555 1_555
C26 C25 1_555 1_555
H30 C26 1_555 1_555
C27 C26 1_555 1_555
H31 C27 1_555 1_555
C28 C25 1_555 1_555
H32 C28 1_555 1_555
H33 C28 1_555 1_555
H34 C28 1_555 1_555
C29 H35 1_555 1_555
C30 C29 1_555 1_555
H36 C30 1_555 1_555
C31 C30 1_555 1_555
C32 C31 1_555 1_555
H37 C32 1_555 1_555
C33 C32 1_555 1_555
H38 C33 1_555 1_555
C34 C31 1_555 1_555
H39 C34 1_555 1_555
H40 C34 1_555 1_555
H41 C34 1_555 1_555
C35 H42 1_555 1_555
C36 C35 1_555 1_555
H43 C36 1_555 1_555
C37 C36 1_555 1_555
C38 C37 1_555 1_555
H44 C38 1_555 1_555
C39 C38 1_555 1_555
H45 C39 1_555 1_555
C40 C37 1_555 1_555
H46 C40 1_555 1_555
H47 C40 1_555 1_555
H48 C40 1_555 1_555
N1 C17 1_555 1_555
N2 C23 1_555 1_555
N3 C29 1_555 1_555
N4 C35 1_555 1_555
Zn1 O1 1_555 1_555
Zn2 O3 1_555 1_555
O5A C12A 1_555 1_555
O6A C12A 1_555 1_555
C9A C11 1_555 1_555
H11A C9A 1_555 1_555
H12A C9A 1_555 1_555
C10A C9A 1_555 1_555
H13A C10A 1_555 1_555
C11A C9 1_555 1_555
H14A C11A 1_555 1_555
H15A C11A 1_555 1_555
C12A C10A 1_555 1_555
O7A C16A 1_555 1_555
O8A C16A 1_555 1_555
C13A C15 1_555 1_555
H16A C13A 1_555 1_555
H17A C13A 1_555 1_555
C14A C13A 1_555 1_555
H18A C14A 1_555 1_555
C15A C13 1_555 1_555
H19A C15A 1_555 1_555
H20A C15A 1_555 1_555
C16A C14A 1_555 1_555
O1A C7A 1_555 1_555
O2A C7A 1_555 1_555
O3A C8A 1_555 1_555
O4A C8A 1_555 1_555
C1A H1A 1_555 1_555
C2A C1A 1_555 1_555
H2A C2A 1_555 1_555
H3A C2A 1_555 1_555
C3A C2A 1_555 1_555
H4A C3A 1_555 1_555
H5A C3A 1_555 1_555
C4A C3A 1_555 1_555
H6A C4A 1_555 1_555
C5A C4A 1_555 1_555
H7A C5A 1_555 1_555
H8A C5A 1_555 1_555
C6A C1A 1_555 1_555
H9A C6A 1_555 1_555
H10A C6A 1_555 1_555
C7A C1A 1_555 1_555
C8A C4A 1_555 1_555
C17A H21A 1_555 1_555
C18A C17A 1_555 1_555
H22A C18A 1_555 1_555
C19A C18A 1_555 1_555
C20A C19A 1_555 1_555
H23A C20A 1_555 1_555
C21A C20A 1_555 1_555
H24A C21A 1_555 1_555
C22A C19A 1_555 1_555
H25A C22A 1_555 1_555
H26A C22A 1_555 1_555
H27A C22A 1_555 1_555
C23A H28A 1_555 1_555
C24A C23A 1_555 1_555
H29A C24A 1_555 1_555
C25A C24A 1_555 1_555
C26A C25A 1_555 1_555
H30A C26A 1_555 1_555
C27A C26A 1_555 1_555
H31A C27A 1_555 1_555
C28A C25A 1_555 1_555
H32A C28A 1_555 1_555
H33A C28A 1_555 1_555
H34A C28A 1_555 1_555
C29A H35A 1_555 1_555
C30A C29A 1_555 1_555
H36A C30A 1_555 1_555
C31A C30A 1_555 1_555
C32A C31A 1_555 1_555
H37A C32A 1_555 1_555
C33A C32A 1_555 1_555
H38A C33A 1_555 1_555
C34A C31A 1_555 1_555
H39A C34A 1_555 1_555
H40A C34A 1_555 1_555
H41A C34A 1_555 1_555
C35A H42A 1_555 1_555
C36A C35A 1_555 1_555
H43A C36A 1_555 1_555
C37A C36A 1_555 1_555
C38A C37A 1_555 1_555
H44A C38A 1_555 1_555
C39A C38A 1_555 1_555
H45A C39A 1_555 1_555
C40A C37A 1_555 1_555
H46A C40A 1_555 1_555
H47A C40A 1_555 1_555
H48A C40A 1_555 1_555
N1A C17A 1_555 1_555
N2A C23A 1_555 1_555
N3A C29A 1_555 1_555
N4A C35A 1_555 1_555
Zn1A O5A 1_555 1_555
Zn2A O3A 1_555 1_555
O7A_2 Zn2A 1_555 1_555
Zn2A_2 O7A 1_555 1_555
O5 Zn1 1_555 1_555
O7 Zn2 1_555 1_555
C5 C6 1_555 1_555
C21 N1 1_555 1_555
C27 N2 1_555 1_555
C33 N3 1_555 1_555
C39 N4 1_555 1_555
N1 Zn1 1_555 1_555
N2 Zn1 1_555 1_555
N3 Zn2 1_555 1_555
N4 Zn2 1_555 1_555
C10A C11A 1_555 1_555
C14A C15A 1_555 1_555
O1A Zn1A 1_555 1_555
C5A C6A 1_555 1_555
C21A N1A 1_555 1_555
C27A N2A 1_555 1_555
C33A N3A 1_555 1_555
C39A N4A 1_555 1_555
N1A Zn1A 1_555 1_555
N2A Zn1A 1_555 1_555
N3A Zn2A 1_555 1_555
N4A Zn2A 1_555 1_555

#END
