
#######################################################################
#
#                 Cambridge Crystallographic Data Centre
#                                CCDC 
#
#######################################################################
#
# If this CIF has been generated from an entry in the Cambridge 
# Structural Database, then it will include bibliographic, chemical, 
# crystal, experimental, refinement or atomic coordinate data resulting 
# from the CCDC's data processing and validation procedures.
#
#######################################################################

data_ZOMLUK
_symmetry_cell_setting           triclinic
_symmetry_space_group_name_H-M   'P -1'
_symmetry_Int_Tables_number      2
_space_group_name_Hall           '-P 1'
loop_
_symmetry_equiv_pos_site_id
_symmetry_equiv_pos_as_xyz
1 x,y,z
2 -x,-y,-z
_cell_length_a                   9.7272(10)
_cell_length_b                   13.4690(14)
_cell_length_c                   15.4478(16)
_cell_angle_alpha                89.2900(10)
_cell_angle_beta                 83.6170(10)
_cell_angle_gamma                70.4760(10)
_cell_volume                     1895.04
loop_
_atom_site_label
_atom_site_type_symbol
_atom_site_fract_x
_atom_site_fract_y
_atom_site_fract_z
C1 C -0.1442(8) 0.6643(6) 0.2778(5)
C2 C 0.0068(7) 0.6591(5) 0.2417(4)
C3 C 0.0662(7) 0.7375(6) 0.2613(5)
C4 C 0.2138(8) 0.7212(5) 0.2316(4)
H1 H 0.2550 0.7719 0.2437
C5 C 0.2983(8) 0.6316(6) 0.1850(4)
C6 C 0.2409(8) 0.5525(6) 0.1651(5)
H2 H 0.2990 0.4914 0.1341
C7 C 0.0950(8) 0.5692(6) 0.1935(5)
H3 H 0.0541 0.5188 0.1799
C8 C 0.7669(9) 0.7266(7) 0.5066(6)
H4 H 0.7327 0.7908 0.4794
C9 C 0.8608(10) 0.7179(9) 0.5699(7)
H5 H 0.8916 0.7734 0.5842
C10 C 0.9057(11) 0.6222(10) 0.6104(7)
H6 H 0.9662 0.6130 0.6545
C11 C 0.8626(13) 0.5411(10) 0.5865(7)
H7 H 0.8933 0.4771 0.6144
C12 C 0.7732(8) 0.5541(6) 0.5207(5)
C13 C 0.7264(8) 0.4687(6) 0.4867(6)
C14 C 0.7677(10) 0.3693(7) 0.5251(7)
H8 H 0.8228 0.3554 0.5720
C15 C 0.7214(13) 0.2912(7) 0.4890(8)
H9 H 0.7472 0.2241 0.5118
C16 C 0.6406(13) 0.3137(7) 0.4221(7)
H10 H 0.6085 0.2633 0.3985
C17 C 0.6063(12) 0.4128(8) 0.3892(7)
H11 H 0.5524 0.4268 0.3417
C18 C 0.4194(7) 1.0258(5) 0.3386(4)
C19 C 0.5643(8) 1.0233(6) 0.3386(5)
H12 H 0.6257 0.9788 0.3753
C20 C 0.6143(8) 1.0879(6) 0.2834(5)
H13 H 0.7117 1.0844 0.2815
C21 C 0.5225(8) 1.1589(5) 0.2301(4)
C22 C 0.3731(8) 1.1659(6) 0.2346(5)
C23 C 0.3263(8) 1.0963(6) 0.2885(4)
H14 H 0.2298 1.0978 0.2904
C24 C 0.5825(8) 1.2290(6) 0.1736(5)
N1 N -0.0126(8) 0.8284(6) 0.3085(5)
H15 H 0.0289 0.8735 0.3191
H16 H -0.1033 0.8402 0.3274
N2 N 0.6443(8) 0.4913(5) 0.4200(5)
N3 N 0.7225(7) 0.6480(5) 0.4822(4)
N4 N 0.2732(7) 1.2356(6) 0.1869(5)
H17 H 0.1843 1.2357 0.1905
H18 H 0.2999 1.2790 0.1534
O1 O -0.2366(6) 0.7525(4) 0.3074(4)
O2 O -0.1818(5) 0.5829(4) 0.2785(3)
O3 O 0.5661(6) 0.5182(5) 0.1953(4)
O4 O 0.5141(6) 0.7056(4) 0.1786(3)
O5 O 0.5085(6) 0.5959(5) 0.0569(3)
O6 O 0.4710(6) 0.8664(4) 0.4392(4)
O7 O 0.2467(6) 1.0128(4) 0.4768(4)
O8 O 0.2686(8) 0.8990(5) 0.3539(4)
O9 O 0.7179(6) 1.2187(5) 0.1698(3)
O10 O 0.5015(6) 1.2957(5) 0.1264(4)
Pb1 Pb 0.57463(3) 0.67657(2) 0.353808(17)
S1 S 0.48658(18) 0.61176(16) 0.15115(12)
S2 S 0.3464(2) 0.94452(14) 0.40777(13)
C25 C 0.3452(10) 0.8613(7) 0.0353(5)
H19 H 0.4406 0.8210 0.0140
C26 C 0.3211(13) 0.9592(8) 0.0741(7)
H20 H 0.3971 0.9862 0.0764
C27 C 0.1814(13) 1.0137(8) 0.1087(7)
H21 H 0.1620 1.0786 0.1364
C28 C 0.1004(8) 0.8779(6) 0.0633(5)
C29 C 0.0694(11) 0.9754(7) 0.1037(6)
H22 H -0.0259 1.0138 0.1269
C30 C -0.0147(9) 0.8286(7) 0.0578(5)
C31 C -0.1535(9) 0.8675(9) 0.1075(6)
H23 H -0.1770 0.9257 0.1450
C32 C -0.2532(10) 0.8169(10) 0.0990(7)
H24 H -0.3458 0.8418 0.1305
C33 C -0.2179(10) 0.7318(10) 0.0455(7)
H25 H -0.2843 0.6967 0.0401
C34 C -0.0786(9) 0.6977(9) -0.0017(6)
H26 H -0.0537 0.6396 -0.0395
N5 N 0.0200(7) 0.7450(6) 0.0052(4)
N6 N 0.2375(7) 0.8227(5) 0.0272(4)
O11 O 0.1147(6) 0.6111(5) -0.1776(4)
H27 H 0.1521 0.5483 -0.1978
H28 H 0.1038 0.6539 -0.2193
Pb2 Pb 0.29549(3) 0.64709(2) -0.057265(17)
O1_2 O 0.7634(6) 0.7525(4) 0.3074(4)
O2_2 O 0.8182(5) 0.5829(4) 0.2785(3)
O9A O 0.2821(6) 0.7813(5) -0.1698(3)
O10A O 0.4985(6) 0.7043(5) -0.1264(4)
Pb1_2 Pb -0.42537(3) 0.67657(2) 0.353808(17)
Pb2A Pb 0.70451(3) 1.35291(2) 0.057265(17)
O12 O 0.9490(7) 0.1982(5) 0.2657(4)
H29 H 0.8963 0.1833 0.2310
H30 H 0.9611 0.1555 0.3075
O13 O 0.9487(7) 0.0503(6) 0.3968(4)
H31 H 1.0121 0.0357 0.4326
H32 H 0.8659 0.0521 0.4221
loop_
_geom_bond_atom_site_label_1
_geom_bond_atom_site_label_2
_geom_bond_site_symmetry_1
_geom_bond_site_symmetry_2
C1 C2 1_555 1_555
C2 C3 1_555 1_555
C3 C4 1_555 1_555
C4 H1 1_555 1_555
C5 C4 1_555 1_555
C6 C5 1_555 1_555
H2 C6 1_555 1_555
C7 C2 1_555 1_555
H3 C7 1_555 1_555
C8 H4 1_555 1_555
C9 C8 1_555 1_555
H5 C9 1_555 1_555
C10 C9 1_555 1_555
H6 C10 1_555 1_555
C11 C10 1_555 1_555
H7 C11 1_555 1_555
C12 C11 1_555 1_555
C13 C12 1_555 1_555
C14 C13 1_555 1_555
H8 C14 1_555 1_555
C15 C14 1_555 1_555
H9 C15 1_555 1_555
C16 C15 1_555 1_555
H10 C16 1_555 1_555
C17 C16 1_555 1_555
H11 C17 1_555 1_555
C18 C19 1_555 1_555
C19 H12 1_555 1_555
C20 C19 1_555 1_555
H13 C20 1_555 1_555
C21 C20 1_555 1_555
C22 C21 1_555 1_555
C23 C18 1_555 1_555
H14 C23 1_555 1_555
C24 C21 1_555 1_555
N1 C3 1_555 1_555
H15 N1 1_555 1_555
H16 N1 1_555 1_555
N2 C13 1_555 1_555
N3 C8 1_555 1_555
N4 C22 1_555 1_555
H17 N4 1_555 1_555
H18 N4 1_555 1_555
O1 C1 1_555 1_555
O2 C1 1_555 1_555
O3 S1 1_555 1_555
O4 Pb1 1_555 1_555
O5 S1 1_555 1_555
O6 Pb1 1_555 1_555
O7 S2 1_555 1_555
O8 S2 1_555 1_555
O9 C24 1_555 1_555
O10 C24 1_555 1_555
Pb1 N2 1_555 1_555
S1 C5 1_555 1_555
S2 C18 1_555 1_555
C25 H19 1_555 1_555
C26 C25 1_555 1_555
H20 C26 1_555 1_555
C27 C26 1_555 1_555
H21 C27 1_555 1_555
C28 C29 1_555 1_555
C29 C27 1_555 1_555
H22 C29 1_555 1_555
C30 C28 1_555 1_555
C31 C30 1_555 1_555
H23 C31 1_555 1_555
C32 C31 1_555 1_555
H24 C32 1_555 1_555
C33 C32 1_555 1_555
H25 C33 1_555 1_555
C34 C33 1_555 1_555
H26 C34 1_555 1_555
N5 C30 1_555 1_555
N6 C25 1_555 1_555
O11 H27 1_555 1_555
H28 O11 1_555 1_555
Pb2 O5 1_555 1_555
O12 H29 1_555 1_555
H30 O12 1_555 1_555
O13 H31 1_555 1_555
H32 O13 1_555 1_555
O1_2 Pb1 1_555 1_555
O2_2 Pb1 1_555 1_555
O9A Pb2 1_555 1_555
O10A Pb2 1_555 1_555
Pb1_2 O1 1_555 1_555
Pb2A O9 1_555 1_555
C6 C7 1_555 1_555
C12 N3 1_555 1_555
C17 N2 1_555 1_555
C22 C23 1_555 1_555
N3 Pb1 1_555 1_555
O2 Pb1_2 1_555 1_555
O4 S1 1_555 1_555
O6 S2 1_555 1_555
O10 Pb2A 1_555 1_555
C28 N6 1_555 1_555
C34 N5 1_555 1_555
N5 Pb2 1_555 1_555
N6 Pb2 1_555 1_555
O11 Pb2 1_555 1_555

#END
