
#######################################################################
#
#                 Cambridge Crystallographic Data Centre
#                                CCDC 
#
#######################################################################
#
# If this CIF has been generated from an entry in the Cambridge 
# Structural Database, then it will include bibliographic, chemical, 
# crystal, experimental, refinement or atomic coordinate data resulting 
# from the CCDC's data processing and validation procedures.
#
#######################################################################

data_ZOMNIA
_symmetry_cell_setting           monoclinic
_symmetry_space_group_name_H-M   'C 2'
_symmetry_Int_Tables_number      5
_space_group_name_Hall           'C 2y'
loop_
_symmetry_equiv_pos_site_id
_symmetry_equiv_pos_as_xyz
1 x,y,z
2 -x,y,-z
3 1/2+x,1/2+y,z
4 1/2-x,1/2+y,-z
_cell_length_a                   13.971(19)
_cell_length_b                   12.841(19)
_cell_length_c                   7.137(11)
_cell_angle_alpha                90
_cell_angle_beta                 90.74(5)
_cell_angle_gamma                90
_cell_volume                     1280.28
loop_
_atom_site_label
_atom_site_type_symbol
_atom_site_fract_x
_atom_site_fract_y
_atom_site_fract_z
Mo1 Mo 0.0000 0.50868(7) 0.5000
Zn1 Zn 0.0000 0.42832(13) 0.0000
C1 C 0.1367(14) 0.2655(17) -0.179(2)
H1 H 0.1138 0.2974 -0.2874
C2 C 0.1446(14) 0.2656(16) 0.127(2)
H2 H 0.1332 0.2947 0.2440
C3 C 0.2055(19) 0.1726(17) 0.115(3)
H3 H 0.2234 0.1358 0.2217
C4 C 0.1957(18) 0.1830(16) -0.208(3)
H4 H 0.2075 0.1575 -0.3275
C5 C 0.2351(14) 0.1417(14) -0.058(3)
C6 C 0.3022(14) 0.0433(15) -0.074(3)
H5 H 0.2719 -0.0156 -0.0135
H6 H 0.3102 0.0261 -0.2050
C7 C 0.4503(12) 0.1518(13) -0.027(2)
H7 H 0.4194 0.2103 0.0335
H8 H 0.4459 0.1633 -0.1612
N1 N 0.1063(10) 0.3080(10) -0.0206(17)
N2 N 0.3989(10) 0.0617(8) 0.0152(17)
H9 H 0.4226 0.0168 0.0921
O1 O 0.0172(9) 0.4304(7) 0.2992(12)
O2 O 0.0976(13) 0.5900(12) 0.5420(19)
C1A C 0.8633(14) 0.2655(17) 0.179(2)
H1A H 0.8862 0.2974 0.2874
C2A C 0.8554(14) 0.2656(16) -0.127(2)
H2A H 0.8668 0.2947 -0.2440
C3A C 0.7945(19) 0.1726(17) -0.115(3)
H3A H 0.7766 0.1358 -0.2217
C4A C 0.8043(18) 0.1830(16) 0.208(3)
H4A H 0.7925 0.1575 0.3275
C5A C 0.7649(14) 0.1417(14) 0.058(3)
C6A C 0.6978(14) 0.0433(15) 0.074(3)
H5A H 0.7281 -0.0156 0.0135
H6A H 0.6898 0.0261 0.2050
C7A C 0.5497(12) 0.1518(13) 0.027(2)
H7A H 0.5806 0.2103 -0.0335
H8A H 0.5541 0.1633 0.1612
N1A N 0.8937(10) 0.3080(10) 0.0206(17)
N2A N 0.6011(10) 0.0617(8) -0.0152(17)
H9A H 0.5774 0.0168 -0.0921
O1A O -0.0172(9) 0.4304(7) -0.2992(12)
O2A O -0.0976(13) 0.5900(12) 0.4580(19)
Mo1_2 Mo 0.0000 0.50868(7) -0.5000
Zn1_2 Zn 1.0000 0.42832(13) 0.0000
Zn1B Zn 0.5000 -0.07168(13) 0.0000
N1A_2 N -0.1063(10) 0.3080(10) 0.0206(17)
N2B N -0.1011(10) 0.5617(8) 0.0152(17)
N2C N 0.1011(10) 0.5617(8) -0.0152(17)
O1A_2 O -0.0172(9) 0.4304(7) 0.7008(12)
O3 O 0.392(3) 0.305(3) 0.422(5)
O4 O -0.021(9) 0.064(11) -0.351(17)
O5 O -0.019(6) -0.064(7) -0.186(11)
loop_
_geom_bond_atom_site_label_1
_geom_bond_atom_site_label_2
_geom_bond_site_symmetry_1
_geom_bond_site_symmetry_2
Mo1 O1 1_555 1_555
Zn1 N1 1_555 1_555
C1 H1 1_555 1_555
C2 H2 1_555 1_555
C3 C2 1_555 1_555
H3 C3 1_555 1_555
C4 C1 1_555 1_555
H4 C4 1_555 1_555
C5 C3 1_555 1_555
C6 C5 1_555 1_555
H5 C6 1_555 1_555
H6 C6 1_555 1_555
C7 H7 1_555 1_555
H8 C7 1_555 1_555
N1 C1 1_555 1_555
N2 C6 1_555 1_555
H9 N2 1_555 1_555
O1 Zn1 1_555 1_555
O2 Mo1 1_555 1_555
C1A H1A 1_555 1_555
C2A H2A 1_555 1_555
C3A C2A 1_555 1_555
H3A C3A 1_555 1_555
C4A C1A 1_555 1_555
H4A C4A 1_555 1_555
C5A C3A 1_555 1_555
C6A C5A 1_555 1_555
H5A C6A 1_555 1_555
H6A C6A 1_555 1_555
C7A C7 1_555 1_555
H7A C7A 1_555 1_555
H8A C7A 1_555 1_555
N1A C1A 1_555 1_555
N2A C6A 1_555 1_555
H9A N2A 1_555 1_555
O1A Zn1 1_555 1_555
O2A Mo1 1_555 1_555
Mo1_2 O1A 1_555 1_555
Zn1_2 N1A 1_555 1_555
Zn1B N2 1_555 1_555
N1A_2 Zn1 1_555 1_555
N2B Zn1 1_555 1_555
N2C Zn1 1_555 1_555
O1A_2 Mo1 1_555 1_555
C2 N1 1_555 1_555
C4 C5 1_555 1_555
C7 N2 1_555 1_555
C2A N1A 1_555 1_555
C4A C5A 1_555 1_555
C7A N2A 1_555 1_555
N2A Zn1B 1_555 1_555

#END
