
#######################################################################
#
#                 Cambridge Crystallographic Data Centre
#                                CCDC 
#
#######################################################################
#
# If this CIF has been generated from an entry in the Cambridge 
# Structural Database, then it will include bibliographic, chemical, 
# crystal, experimental, refinement or atomic coordinate data resulting 
# from the CCDC's data processing and validation procedures.
#
#######################################################################

data_ZOMNAS
_symmetry_cell_setting           monoclinic
_symmetry_space_group_name_H-M   'C 2/c'
_symmetry_Int_Tables_number      15
_space_group_name_Hall           '-C 2yn'
loop_
_symmetry_equiv_pos_site_id
_symmetry_equiv_pos_as_xyz
1 x,y,z
2 -x,y,1/2-z
3 1/2+x,1/2+y,z
4 1/2-x,1/2+y,1/2-z
5 -x,-y,-z
6 x,-y,1/2+z
7 1/2-x,1/2-y,-z
8 1/2+x,1/2-y,1/2+z
_cell_length_a                   14.043(2)
_cell_length_b                   12.4823(15)
_cell_length_c                   12.349(2)
_cell_angle_alpha                90
_cell_angle_beta                 111.890(8)
_cell_angle_gamma                90
_cell_volume                     2008.58
loop_
_atom_site_label
_atom_site_type_symbol
_atom_site_fract_x
_atom_site_fract_y
_atom_site_fract_z
Zn1 Zn 0.5000 0.72105(4) 0.2500
C1 C 0.4418(3) 0.4942(3) 0.2245(4)
H1 H 0.4175 0.4932 0.1400
H2 H 0.4160 0.4308 0.2499
C2 C 0.2923(3) 0.6075(3) 0.2050(4)
H3 H 0.2769 0.6196 0.1227
H4 H 0.2732 0.6716 0.2363
C3 C 0.2269(3) 0.5149(3) 0.2176(4)
C4 C 0.2384(5) 0.4707(5) 0.3231(5)
H5 H 0.2886 0.4967 0.3911
C5 C 0.1549(6) 0.4718(6) 0.1259(5)
H6 H 0.1458 0.4961 0.0515
C6 C 0.1752(5) 0.3872(5) 0.3287(4)
H7 H 0.1856 0.3583 0.4016
C7 C 0.0925(6) 0.3906(6) 0.1391(5)
H8 H 0.0400 0.3659 0.0724
N1 N 0.4042(2) 0.5912(2) 0.2640(3)
H9 H 0.4170 0.5823 0.3413
N2 N 0.5597(3) 0.6997(3) 0.5273(3)
N3 N 0.1024(2) 0.3467(2) 0.2384(3)
O1 O 0.5874(2) 0.7204(2) 0.4444(3)
O2 O 0.5955(4) 0.7478(5) 0.6185(4)
O3 O 0.4933(5) 0.6325(5) 0.5154(4)
C1A C 0.5582(3) 0.4942(3) 0.2755(4)
H1A H 0.5825 0.4932 0.3600
H2A H 0.5840 0.4308 0.2501
C2A C 0.7077(3) 0.6075(3) 0.2950(4)
H3A H 0.7231 0.6196 0.3773
H4A H 0.7268 0.6716 0.2637
C3A C 0.7731(3) 0.5149(3) 0.2824(4)
C4A C 0.7616(5) 0.4707(5) 0.1769(5)
H5A H 0.7114 0.4967 0.1089
C5A C 0.8451(6) 0.4718(6) 0.3741(5)
H6A H 0.8542 0.4961 0.4485
C6A C 0.8248(5) 0.3872(5) 0.1713(4)
H7A H 0.8144 0.3583 0.0984
C7A C 0.9075(6) 0.3906(6) 0.3609(5)
H8A H 0.9600 0.3659 0.4276
N1A N 0.5958(2) 0.5912(2) 0.2360(3)
H9A H 0.5830 0.5823 0.1587
N3A N 0.8976(2) 0.3467(2) 0.2616(3)
N2A N 0.4403(3) 0.6997(3) -0.0273(3)
O1A O 0.4126(2) 0.7204(2) 0.0556(3)
O2A O 0.4045(4) 0.7478(5) -0.1185(4)
O3A O 0.5067(5) 0.6325(5) -0.0154(4)
Zn1B Zn 0.0000 0.22105(4) 0.2500
Zn1B_2 Zn 1.0000 0.22105(4) 0.2500
N3B N 0.6024(2) 0.8467(2) 0.2384(3)
N3C N 0.3976(2) 0.8467(2) 0.2616(3)
O4 O 0.613(3) 0.7972(17) 0.861(2)
loop_
_geom_bond_atom_site_label_1
_geom_bond_atom_site_label_2
_geom_bond_site_symmetry_1
_geom_bond_site_symmetry_2
Zn1 N1 1_555 1_555
C1 H1 1_555 1_555
H2 C1 1_555 1_555
C2 H3 1_555 1_555
H4 C2 1_555 1_555
C3 C2 1_555 1_555
C4 C3 1_555 1_555
H5 C4 1_555 1_555
C5 C3 1_555 1_555
H6 C5 1_555 1_555
C6 C4 1_555 1_555
H7 C6 1_555 1_555
C7 C5 1_555 1_555
H8 C7 1_555 1_555
N1 C1 1_555 1_555
H9 N1 1_555 1_555
N2 O1 1_555 1_555
N3 C6 1_555 1_555
O1 Zn1 1_555 1_555
O2 N2 1_555 1_555
O3 N2 1_555 1_555
C1A C1 1_555 1_555
H1A C1A 1_555 1_555
H2A C1A 1_555 1_555
C2A H3A 1_555 1_555
H4A C2A 1_555 1_555
C3A C2A 1_555 1_555
C4A C3A 1_555 1_555
H5A C4A 1_555 1_555
C5A C3A 1_555 1_555
H6A C5A 1_555 1_555
C6A C4A 1_555 1_555
H7A C6A 1_555 1_555
C7A C5A 1_555 1_555
H8A C7A 1_555 1_555
N1A Zn1 1_555 1_555
H9A N1A 1_555 1_555
N3A C6A 1_555 1_555
N2A O1A 1_555 1_555
O1A Zn1 1_555 1_555
O2A N2A 1_555 1_555
O3A N2A 1_555 1_555
Zn1B N3 1_555 1_555
Zn1B_2 N3A 1_555 1_555
N3B Zn1 1_555 1_555
N3C Zn1 1_555 1_555
C2 N1 1_555 1_555
C7 N3 1_555 1_555
C1A N1A 1_555 1_555
C2A N1A 1_555 1_555
C7A N3A 1_555 1_555

#END
