
#######################################################################
#
#                 Cambridge Crystallographic Data Centre
#                                CCDC 
#
#######################################################################
#
# If this CIF has been generated from an entry in the Cambridge 
# Structural Database, then it will include bibliographic, chemical, 
# crystal, experimental, refinement or atomic coordinate data resulting 
# from the CCDC's data processing and validation procedures.
#
#######################################################################

data_ZOMREA
_symmetry_cell_setting           orthorhombic
_symmetry_space_group_name_H-M   'P 21 21 21'
_symmetry_Int_Tables_number      19
_space_group_name_Hall           'P 2ac 2ab'
loop_
_symmetry_equiv_pos_site_id
_symmetry_equiv_pos_as_xyz
1 x,y,z
2 1/2-x,-y,1/2+z
3 -x,1/2+y,1/2-z
4 1/2+x,1/2-y,-z
_cell_length_a                   10.1087(3)
_cell_length_b                   11.8027(5)
_cell_length_c                   19.9017(7)
_cell_angle_alpha                90
_cell_angle_beta                 90
_cell_angle_gamma                90
_cell_volume                     2374.47
loop_
_atom_site_label
_atom_site_type_symbol
_atom_site_fract_x
_atom_site_fract_y
_atom_site_fract_z
Cd1 Cd 1.24429(9) 1.48516(7) 0.01427(4)
Cd2 Cd 1.73740(9) 1.07330(7) -0.24231(4)
Cd3 Cd 0.74338(9) 1.41392(8) 0.24127(5)
Ca1 Ca 1.12682(19) 0.99061(16) -0.00075(10)
C1 C 1.0897(11) 1.2720(9) -0.0397(6)
C2 C 1.0284(10) 1.3587(9) -0.0891(5)
H1 H 1.0547 1.3394 -0.1351
C3 C 0.8753(11) 1.3603(9) -0.0844(5)
H2 H 0.8429 1.2859 -0.0986
C4 C 0.8169(11) 1.4482(10) -0.1312(5)
C5 C 1.0890(11) 1.7090(9) 0.0417(5)
C6 C 1.0136(9) 1.6266(9) 0.0874(5)
H3 H 1.0491 1.6349 0.1329
C7 C 0.8671(10) 1.6546(10) 0.0900(5)
H4 H 0.8541 1.7316 0.1072
C8 C 0.8036(10) 1.5675(10) 0.1380(6)
C9 C 1.3799(11) 1.4742(10) -0.1250(5)
C10 C 1.4542(11) 1.3966(10) -0.1748(6)
H5 H 1.5499 1.4066 -0.1699
C11 C 1.4168(12) 1.2760(11) -0.1607(6)
H6 H 1.4346 1.2619 -0.1130
C12 C 1.5081(13) 1.1983(12) -0.2011(7)
C13 C 1.8898(11) 0.9535(10) -0.1263(5)
C14 C 1.9518(11) 0.8867(10) -0.1834(6)
H7 H 2.0474 0.9009 -0.1835
C15 C 1.9285(12) 0.7604(10) -0.1703(5)
H8 H 1.9572 0.7433 -0.1244
C16 C 2.0192(13) 0.6949(11) -0.2197(6)
O1 O 1.1895(8) 1.3040(6) -0.0063(4)
O2 O 1.0461(8) 1.1744(7) -0.0409(4)
O3 O 1.0741(7) 1.4705(7) -0.0733(4)
H9 H 1.0413 1.5324 -0.0938
O4 O 0.8313(7) 1.3789(6) -0.0182(4)
H10 H 0.8021 1.3223 -0.0002
O5 O 0.7260(7) 1.5092(8) -0.1118(4)
O6 O 0.8672(8) 1.4590(7) -0.1893(4)
O7 O 1.1866(7) 1.6704(6) 0.0090(4)
O8 O 1.0608(8) 1.8115(7) 0.0449(4)
O9 O 1.0334(7) 1.5118(7) 0.0673(4)
H11 H 0.9736 1.4564 0.0738
O10 O 0.8089(7) 1.6435(6) 0.0273(3)
H12 H 0.7543 1.6844 0.0022
O11 O 0.7196(7) 1.5011(7) 0.1173(4)
O12 O 0.8437(8) 1.5653(8) 0.2000(4)
O13 O 1.4146(8) 1.4656(8) -0.0634(4)
O14 O 1.2869(8) 1.5333(7) -0.1464(4)
O15 O 1.4156(7) 1.4184(8) -0.2419(4)
H13 H 1.4936 1.4422 -0.2564
O16 O 1.2805(9) 1.2562(7) -0.1714(4)
H14 H 1.2606 1.2636 -0.2124
O17 O 1.4580(10) 1.1412(9) -0.2486(4)
O18 O 1.6261(9) 1.2030(8) -0.1867(5)
O19 O 1.7904(8) 1.0136(7) -0.1358(4)
O20 O 1.9377(7) 0.9407(7) -0.0681(4)
O21 O 1.8998(7) 0.9186(7) -0.2469(3)
H15 H 1.9689 0.9364 -0.2689
O22 O 1.7926(9) 0.7323(7) -0.1759(4)
H16 H 1.7611 0.7817 -0.2006
O23 O 1.9654(9) 0.6443(8) -0.2693(4)
O24 O 2.1340(9) 0.7026(7) -0.2092(5)
Cd1C Cd 1.74429(9) 1.01484(7) -0.01427(4)
Cd2B Cd 1.26260(9) 1.57330(7) -0.25769(4)
Cd2B_2 Cd 2.26260(9) 0.57330(7) -0.25769(4)
Cd3A Cd 0.75662(9) 1.58608(8) -0.25873(5)
Cd3A_2 Cd 1.75662(9) 0.58608(8) -0.25873(5)
Cd3C Cd 1.24338(9) 1.08608(8) -0.24127(5)
Ca1_2 Ca 1.12682(19) 1.99061(16) -0.00075(10)
Ca1_3 Ca 2.12682(19) 0.99061(16) -0.00075(10)
Ca1C Ca 0.62682(19) 1.50939(16) 0.00075(10)
Ca1C_2 Ca 1.62682(19) 1.50939(16) 0.00075(10)
O4C O 1.3313(7) 1.1211(6) 0.0182(4)
O5C O 1.2260(7) 0.9908(8) 0.1118(4)
O6A O 0.6328(8) 1.5410(7) 0.3107(4)
O8_2 O 1.0608(8) 0.8115(7) 0.0449(4)
O10C O 1.3089(7) 0.8565(6) -0.0273(3)
O11C O 1.2196(7) 0.9989(7) -0.1173(4)
O13C O 0.9146(8) 1.0344(8) 0.0634(4)
O14B O 1.7131(8) 1.0333(7) -0.3536(4)
O15B O 1.5844(7) 0.9184(8) -0.2581(4)
O16C O 0.7805(9) 1.2438(7) 0.1714(4)
O17C O 0.9580(10) 1.3588(9) 0.2486(4)
O19C O 1.2904(8) 1.4864(7) 0.1358(4)
O20_2 O 0.9377(7) 0.9407(7) -0.0681(4)
O20C O 1.4377(7) 1.5593(7) 0.0681(4)
O22A O 0.7074(9) 1.2677(7) 0.3241(4)
O23A O 0.5346(9) 1.3557(8) 0.2307(4)
O24B O 1.8660(9) 1.2026(7) -0.2908(5)
loop_
_geom_bond_atom_site_label_1
_geom_bond_atom_site_label_2
_geom_bond_site_symmetry_1
_geom_bond_site_symmetry_2
Cd1 O1 1_555 1_555
Cd2 O18 1_555 1_555
Cd3 O11 1_555 1_555
Ca1 O2 1_555 1_555
C1 C2 1_555 1_555
C2 H1 1_555 1_555
C3 C2 1_555 1_555
H2 C3 1_555 1_555
C4 C3 1_555 1_555
C5 C6 1_555 1_555
C6 H3 1_555 1_555
C7 C6 1_555 1_555
H4 C7 1_555 1_555
C8 C7 1_555 1_555
C9 C10 1_555 1_555
C10 H5 1_555 1_555
C11 C10 1_555 1_555
H6 C11 1_555 1_555
C12 C11 1_555 1_555
C13 C14 1_555 1_555
C14 H7 1_555 1_555
C15 C14 1_555 1_555
H8 C15 1_555 1_555
C16 C15 1_555 1_555
O1 C1 1_555 1_555
O2 C1 1_555 1_555
O3 Cd1 1_555 1_555
H9 O3 1_555 1_555
O4 C3 1_555 1_555
H10 O4 1_555 1_555
O5 C4 1_555 1_555
O6 C4 1_555 1_555
O7 Cd1 1_555 1_555
O8 C5 1_555 1_555
O9 Cd1 1_555 1_555
H11 O9 1_555 1_555
O10 C7 1_555 1_555
H12 O10 1_555 1_555
O11 C8 1_555 1_555
O12 Cd3 1_555 1_555
O13 Cd1 1_555 1_555
O14 C9 1_555 1_555
O15 C10 1_555 1_555
H13 O15 1_555 1_555
O16 C11 1_555 1_555
H14 O16 1_555 1_555
O17 C12 1_555 1_555
O18 C12 1_555 1_555
O19 Cd2 1_555 1_555
O20 C13 1_555 1_555
O21 Cd2 1_555 1_555
H15 O21 1_555 1_555
O22 C15 1_555 1_555
H16 O22 1_555 1_555
O23 C16 1_555 1_555
O24 C16 1_555 1_555
Cd1C O19 1_555 1_555
Cd2B O14 1_555 1_555
Cd2B_2 O24 1_555 1_555
Cd3A O6 1_555 1_555
Cd3A_2 O22 1_555 1_555
Cd3C O16 1_555 1_555
Ca1_2 O8 1_555 1_555
Ca1_3 O20 1_555 1_555
Ca1C O4 1_555 1_555
Ca1C_2 O13 1_555 1_555
O4C Ca1 1_555 1_555
O5C Ca1 1_555 1_555
O6A Cd3 1_555 1_555
O8_2 Ca1 1_555 1_555
O10C Ca1 1_555 1_555
O11C Ca1 1_555 1_555
O13C Ca1 1_555 1_555
O14B Cd2 1_555 1_555
O15B Cd2 1_555 1_555
O16C Cd3 1_555 1_555
O17C Cd3 1_555 1_555
O19C Cd1 1_555 1_555
O20_2 Ca1 1_555 1_555
O20C Cd1 1_555 1_555
O22A Cd3 1_555 1_555
O23A Cd3 1_555 1_555
O24B Cd2 1_555 1_555
C2 O3 1_555 1_555
C5 O7 1_555 1_555
C6 O9 1_555 1_555
C8 O12 1_555 1_555
C9 O13 1_555 1_555
C13 O19 1_555 1_555
C14 O21 1_555 1_555
O5 Ca1C 1_555 1_555
O10 Ca1C 1_555 1_555
O11 Ca1C 1_555 1_555
O15 Cd2B 1_555 1_555
O17 Cd3C 1_555 1_555
O20 Cd1C 1_555 1_555
O23 Cd3A_2 1_555 1_555
Cd3C O11C 1_555 1_555
Ca1C_2 O20C 1_555 1_555

#END
