
#######################################################################
#
#                 Cambridge Crystallographic Data Centre
#                                CCDC 
#
#######################################################################
#
# If this CIF has been generated from an entry in the Cambridge 
# Structural Database, then it will include bibliographic, chemical, 
# crystal, experimental, refinement or atomic coordinate data resulting 
# from the CCDC's data processing and validation procedures.
#
#######################################################################

data_ZOMXAC
_symmetry_cell_setting           hexagonal
_symmetry_space_group_name_H-M   'P 63/m m c'
_symmetry_Int_Tables_number      194
_space_group_name_Hall           "-P 6c 2'c"
loop_
_symmetry_equiv_pos_site_id
_symmetry_equiv_pos_as_xyz
1 x,y,z
2 x-y,x,1/2+z
3 -y,x-y,z
4 -x,-y,1/2+z
5 -x+y,-x,z
6 y,-x+y,1/2+z
7 -y,-x,1/2-z
8 x-y,-y,-z
9 x,x-y,1/2-z
10 y,x,-z
11 -x+y,y,1/2-z
12 -x,-x+y,-z
13 -x,-y,-z
14 -x+y,-x,1/2-z
15 y,-x+y,-z
16 x,y,1/2-z
17 x-y,x,-z
18 -y,x-y,1/2-z
19 y,x,1/2+z
20 -x+y,y,z
21 -x,-x+y,1/2+z
22 -y,-x,z
23 x-y,-y,1/2+z
24 x,x-y,z
_cell_length_a                   10.0716(17)
_cell_length_b                   10.0716(17)
_cell_length_c                   7.5860(14)
_cell_angle_alpha                90
_cell_angle_beta                 90
_cell_angle_gamma                120
_cell_volume                     666.408
loop_
_atom_site_label
_atom_site_type_symbol
_atom_site_fract_x
_atom_site_fract_y
_atom_site_fract_z
Co1 Co 0.0000 0.0000 1.0000
N1 N 0.2002(6) 0.1001(3) 1.1596(7)
C1 C 0.3460(8) 0.1730(4) 1.1142(11)
N2 N 0.4405(9) 0.2202(5) 1.2500
H1 H 0.3791 0.1896 0.9977
N3 N 0.6667 0.3333 0.8925(16)
N4 N 0.6667 0.3333 0.7500
Co2 Co 0.6667 0.3333 1.1787(5)
N1H N 0.2002(6) 0.1001(7) 1.3404(7)
C1H C 0.3460(8) 0.1730(9) 1.3858(11)
H1H H 0.3791 0.1895 1.5023
N3F N 0.6667 0.3333 0.6075(16)
N1B N -0.1001(3) 0.1001(7) 1.1596(7)
C1B C -0.1730(4) 0.1730(9) 1.1142(11)
N2B N -0.2202(5) 0.2203(10) 1.2500
H1B H -0.1896 0.1895 0.9977
N1J N -0.1001(7) 0.1001(3) 1.3404(7)
C1J C -0.1730(9) 0.1730(4) 1.3858(11)
H1J H -0.1895 0.1896 1.5023
N1D N -0.1001(7) -0.2002(6) 1.1596(7)
C1D C -0.1730(9) -0.3460(8) 1.1142(11)
N2D N -0.2203(10) -0.4405(9) 1.2500
H1D H -0.1895 -0.3791 0.9977
N1F N -0.1001(3) -0.2002(6) 1.3404(7)
C1F C -0.1730(4) -0.3460(8) 1.3858(11)
H1F H -0.1896 -0.3791 1.5023
Co2F Co 0.6667 0.3333 0.3213(5)
Co1A Co 0.0000 0.0000 1.5000
N1G N 0.1001(7) -0.1001(3) 0.8404(7)
N1I N 0.1001(3) 0.2002(6) 0.8404(7)
N1K N -0.2002(6) -0.1001(7) 0.8404(7)
N2_2 N 0.4405(9) 0.2202(5) 0.2500
N2B_2 N 0.7798(5) 0.2203(10) 0.2500
N2B_3 N 0.7798(5) 0.2203(10) 1.2500
N2D_2 N 0.7797(10) 0.5595(9) 0.2500
N2D_3 N 0.7797(10) 0.5595(9) 1.2500
Co2_2 Co -0.3333 -0.6667 1.1787(5)
Co2_3 Co -0.3333 0.3333 1.1787(5)
Co2_4 Co 0.6667 0.3333 0.1787(5)
Co2F_2 Co -0.3333 -0.6667 1.3213(5)
Co2F_3 Co -0.3333 0.3333 1.3213(5)
Co2F_4 Co 0.6667 0.3333 1.3213(5)
loop_
_geom_bond_atom_site_label_1
_geom_bond_atom_site_label_2
_geom_bond_site_symmetry_1
_geom_bond_site_symmetry_2
Co1 N1 1_555 1_555
N1 C1 1_555 1_555
C1 N2 1_555 1_555
N2 Co2 1_555 1_555
H1 C1 1_555 1_555
N3 N4 1_555 1_555
N4 N3F 1_555 1_555
Co2 N3 1_555 1_555
N1H N1 1_555 1_555
C1H N2 1_555 1_555
H1H C1H 1_555 1_555
N3F Co2F 1_555 1_555
N1B Co1 1_555 1_555
C1B N1B 1_555 1_555
N2B C1B 1_555 1_555
H1B C1B 1_555 1_555
N1J N1B 1_555 1_555
C1J N2B 1_555 1_555
H1J C1J 1_555 1_555
N1D Co1 1_555 1_555
C1D N1D 1_555 1_555
N2D C1D 1_555 1_555
H1D C1D 1_555 1_555
N1F N1D 1_555 1_555
C1F N2D 1_555 1_555
H1F C1F 1_555 1_555
Co2F N2_2 1_555 1_555
Co1A N1H 1_555 1_555
N1G Co1 1_555 1_555
N1I Co1 1_555 1_555
N1K Co1 1_555 1_555
N2_2 Co2_4 1_555 1_555
N2B_2 Co2F 1_555 1_555
N2B_3 Co2 1_555 1_555
N2D_2 Co2F 1_555 1_555
N2D_3 Co2 1_555 1_555
Co2_2 N2D 1_555 1_555
Co2_3 N2B 1_555 1_555
Co2_4 Co2F 1_555 1_555
Co2F_2 N2D 1_555 1_555
Co2F_3 N2B 1_555 1_555
Co2F_4 N2 1_555 1_555
Co2 Co2F_4 1_555 1_555
N1H C1H 1_555 1_555
N1J C1J 1_555 1_555
N1J Co1A 1_555 1_555
N1F C1F 1_555 1_555
N1F Co1A 1_555 1_555
N2B_2 Co2_4 1_555 1_555
N2B_3 Co2F_4 1_555 1_555
N2D_2 Co2_4 1_555 1_555
N2D_3 Co2F_4 1_555 1_555
Co2_2 Co2F_2 1_555 1_555
Co2_3 Co2F_3 1_555 1_555

#END
