
#######################################################################
#
#                 Cambridge Crystallographic Data Centre
#                                CCDC 
#
#######################################################################
#
# If this CIF has been generated from an entry in the Cambridge 
# Structural Database, then it will include bibliographic, chemical, 
# crystal, experimental, refinement or atomic coordinate data resulting 
# from the CCDC's data processing and validation procedures.
#
#######################################################################

data_ZONGOA
_symmetry_cell_setting           monoclinic
_symmetry_space_group_name_H-M   'C 2/c'
_symmetry_Int_Tables_number      15
_space_group_name_Hall           '-C 2yn'
loop_
_symmetry_equiv_pos_site_id
_symmetry_equiv_pos_as_xyz
1 x,y,z
2 -x,y,1/2-z
3 1/2+x,1/2+y,z
4 1/2-x,1/2+y,1/2-z
5 -x,-y,-z
6 x,-y,1/2+z
7 1/2-x,1/2-y,-z
8 1/2+x,1/2-y,1/2+z
_cell_length_a                   26.57(2)
_cell_length_b                   11.675(8)
_cell_length_c                   9.401(8)
_cell_angle_alpha                90
_cell_angle_beta                 94.23(12)
_cell_angle_gamma                90
_cell_volume                     2908.29
loop_
_atom_site_label
_atom_site_type_symbol
_atom_site_fract_x
_atom_site_fract_y
_atom_site_fract_z
La1 La 0.0000 0.54200(4) 0.7500
O1 O 0.12824(17) 0.2012(4) 0.5867(5)
O2 O 0.14380(19) 0.4040(5) 0.8457(6)
O3 O 0.07773(15) 0.4346(4) 0.6905(4)
O4 O 0.02725(15) 0.4030(4) 0.9543(5)
O5 O 0.0376(3) 0.2820(5) 1.1319(5)
N1 N 0.14974(19) 0.2576(5) 0.3263(5)
C1 C 0.0595(2) 0.2162(5) 0.9068(6)
C2 C 0.08835(19) 0.2489(5) 0.7937(6)
C3 C 0.1047(2) 0.1628(5) 0.7064(6)
C4 C 0.0936(3) 0.0491(6) 0.7266(7)
H1 H 0.1053 -0.0067 0.6666
C5 C 0.0649(3) 0.0191(6) 0.8374(7)
H2 H 0.0565 -0.0572 0.8515
C6 C 0.0484(2) 0.1032(6) 0.9278(7)
H3 H 0.0297 0.0824 1.0034
C7 C 0.1051(2) 0.3724(5) 0.7758(6)
C8 C 0.0400(2) 0.3068(5) 1.0040(6)
C9 C 0.1711(2) 0.1528(5) 0.5427(6)
C10 C 0.2044(2) 0.0853(6) 0.6223(7)
H4 H 0.1967 0.0607 0.7123
C11 C 0.2505(3) 0.0529(6) 0.5677(8)
H5 H 0.2728 0.0065 0.6223
C12 C 0.2628(2) 0.0882(6) 0.4373(7)
H6 H 0.2936 0.0667 0.4043
C13 C 0.2293(2) 0.1572(5) 0.3515(6)
C14 C 0.1827(2) 0.1890(5) 0.4041(6)
C15 C 0.1610(3) 0.2969(7) 0.2006(7)
H7 H 0.1380 0.3439 0.1490
C16 C 0.2065(3) 0.2695(7) 0.1432(7)
H8 H 0.2131 0.2956 0.0530
C17 C 0.23897(18) 0.2081(5) 0.2164(4)
H9 H 0.2702 0.1958 0.1807
O6 O 0.07758(18) 0.6067(5) 0.9139(4)
O1A O -0.12824(17) 0.2012(4) 0.9133(5)
O2A O -0.14380(19) 0.4040(5) 0.6543(6)
O3A O -0.07773(15) 0.4346(4) 0.8095(4)
O4A O -0.02725(15) 0.4030(4) 0.5457(5)
O5A O -0.0376(3) 0.2820(5) 0.3681(5)
N1A N -0.14974(19) 0.2576(5) 1.1737(5)
C1A C -0.0595(2) 0.2162(5) 0.5932(6)
C2A C -0.08835(19) 0.2489(5) 0.7063(6)
C3A C -0.1047(2) 0.1628(5) 0.7936(6)
C4A C -0.0936(3) 0.0491(6) 0.7734(7)
H1A H -0.1053 -0.0067 0.8334
C5A C -0.0649(3) 0.0191(6) 0.6626(7)
H2A H -0.0565 -0.0572 0.6485
C6A C -0.0484(2) 0.1032(6) 0.5722(7)
H3A H -0.0297 0.0824 0.4966
C7A C -0.1051(2) 0.3724(5) 0.7242(6)
C8A C -0.0400(2) 0.3068(5) 0.4960(6)
C9A C -0.1711(2) 0.1528(5) 0.9573(6)
C10A C -0.2044(2) 0.0853(6) 0.8777(7)
H4A H -0.1967 0.0607 0.7877
C11A C -0.2505(3) 0.0529(6) 0.9323(8)
H5A H -0.2728 0.0065 0.8777
C12A C -0.2628(2) 0.0882(6) 1.0627(7)
H6A H -0.2936 0.0667 1.0957
C13A C -0.2293(2) 0.1572(5) 1.1485(6)
C14A C -0.1827(2) 0.1890(5) 1.0959(6)
C15A C -0.1610(3) 0.2969(7) 1.2994(7)
H7A H -0.1380 0.3439 1.3510
C16A C -0.2065(3) 0.2695(7) 1.3568(7)
H8A H -0.2131 0.2956 1.4470
C17A C -0.23897(18) 0.2081(5) 1.2836(4)
H9A H -0.2702 0.1958 1.3193
O6A O -0.07758(18) 0.6067(5) 0.5861(4)
La1D La 0.0000 0.45800(4) 0.2500
La1D_2 La 0.0000 0.45800(4) 1.2500
O4D O -0.02725(15) 0.5970(4) 1.0457(5)
O4E O 0.02725(15) 0.5970(4) 0.4543(5)
O5D O -0.0376(3) 0.7180(5) 0.8681(5)
O5E O 0.0376(3) 0.7180(5) 0.6319(5)
loop_
_geom_bond_atom_site_label_1
_geom_bond_atom_site_label_2
_geom_bond_site_symmetry_1
_geom_bond_site_symmetry_2
La1 O3 1_555 1_555
O1 C3 1_555 1_555
O2 C7 1_555 1_555
O3 C7 1_555 1_555
O4 La1 1_555 1_555
O5 C8 1_555 1_555
N1 C14 1_555 1_555
C1 C2 1_555 1_555
C2 C3 1_555 1_555
C3 C4 1_555 1_555
C4 H1 1_555 1_555
C5 C4 1_555 1_555
H2 C5 1_555 1_555
C6 C1 1_555 1_555
H3 C6 1_555 1_555
C7 C2 1_555 1_555
C8 O4 1_555 1_555
C9 O1 1_555 1_555
C10 C9 1_555 1_555
H4 C10 1_555 1_555
C11 C10 1_555 1_555
H5 C11 1_555 1_555
C12 C11 1_555 1_555
H6 C12 1_555 1_555
C13 C12 1_555 1_555
C14 C9 1_555 1_555
C15 N1 1_555 1_555
H7 C15 1_555 1_555
C16 C15 1_555 1_555
H8 C16 1_555 1_555
C17 C13 1_555 1_555
H9 C17 1_555 1_555
O6 La1 1_555 1_555
O1A C3A 1_555 1_555
O2A C7A 1_555 1_555
O3A La1 1_555 1_555
O4A La1 1_555 1_555
O5A C8A 1_555 1_555
N1A C14A 1_555 1_555
C1A C2A 1_555 1_555
C2A C3A 1_555 1_555
C3A C4A 1_555 1_555
C4A H1A 1_555 1_555
C5A C4A 1_555 1_555
H2A C5A 1_555 1_555
C6A C1A 1_555 1_555
H3A C6A 1_555 1_555
C7A O3A 1_555 1_555
C8A O4A 1_555 1_555
C9A O1A 1_555 1_555
C10A C9A 1_555 1_555
H4A C10A 1_555 1_555
C11A C10A 1_555 1_555
H5A C11A 1_555 1_555
C12A C11A 1_555 1_555
H6A C12A 1_555 1_555
C13A C12A 1_555 1_555
C14A C9A 1_555 1_555
C15A N1A 1_555 1_555
H7A C15A 1_555 1_555
C16A C15A 1_555 1_555
H8A C16A 1_555 1_555
C17A C13A 1_555 1_555
H9A C17A 1_555 1_555
O6A La1 1_555 1_555
La1D O4A 1_555 1_555
La1D_2 O4 1_555 1_555
O4D La1 1_555 1_555
O4E La1 1_555 1_555
O5D La1 1_555 1_555
O5E La1 1_555 1_555
O5 La1D_2 1_555 1_555
C1 C8 1_555 1_555
C5 C6 1_555 1_555
C13 C14 1_555 1_555
C16 C17 1_555 1_555
O5A La1D 1_555 1_555
C1A C8A 1_555 1_555
C2A C7A 1_555 1_555
C5A C6A 1_555 1_555
C13A C14A 1_555 1_555
C16A C17A 1_555 1_555
La1D O4E 1_555 1_555
La1D_2 O4D 1_555 1_555

#END
