
#######################################################################
#
#                 Cambridge Crystallographic Data Centre
#                                CCDC 
#
#######################################################################
#
# If this CIF has been generated from an entry in the Cambridge 
# Structural Database, then it will include bibliographic, chemical, 
# crystal, experimental, refinement or atomic coordinate data resulting 
# from the CCDC's data processing and validation procedures.
#
#######################################################################

data_ZONWEE
_symmetry_cell_setting           monoclinic
_symmetry_space_group_name_H-M   'C c'
_symmetry_Int_Tables_number      9
_space_group_name_Hall           'C -2yc'
loop_
_symmetry_equiv_pos_site_id
_symmetry_equiv_pos_as_xyz
1 x,y,z
2 x,-y,1/2+z
3 1/2+x,1/2+y,z
4 1/2+x,1/2-y,1/2+z
_cell_length_a                   13.442(2)
_cell_length_b                   22.223(3)
_cell_length_c                   20.912(3)
_cell_angle_alpha                90
_cell_angle_beta                 94.38(2)
_cell_angle_gamma                90
_cell_volume                     6228.62
loop_
_atom_site_label
_atom_site_type_symbol
_atom_site_fract_x
_atom_site_fract_y
_atom_site_fract_z
Cd1 Cd 0.0598(4) 0.3729(1) 0.1288(4)
N1 N 0.1887(16) 0.4445(10) 0.1504(11)
N2 N 0.0363(15) 0.2818(9) 0.0535(10)
C1 C 0.3739(9) 0.3616(7) 0.0755(7)
C2 C 0.3813(9) 0.3059(7) 0.0456(7)
C3 C 0.2966(9) 0.2701(7) 0.0338(7)
C4 C 0.2045(9) 0.2900(7) 0.0520(7)
N3 N 0.1971(9) 0.3458(7) 0.0820(7)
C5 C 0.2818(9) 0.3816(7) 0.0937(7)
C6 C 0.2631(23) 0.4399(14) 0.1338(15)
C7 C 0.1910(10) 0.5573(7) 0.1553(7)
C8 C 0.1607(10) 0.6102(7) 0.1840(7)
C9 C 0.1012(10) 0.6075(7) 0.2357(7)
C10 C 0.0718(10) 0.5519(7) 0.2587(7)
C11 C 0.1020(10) 0.4989(7) 0.2300(7)
C12 C 0.1616(10) 0.5016(7) 0.1784(7)
O1 O 0.0911(13) 0.4447(8) 0.2535(9)
C13 C 0.0651(22) 0.4411(13) 0.3175(14)
C14 C -0.0404(15) 0.3532(11) 0.3525(12)
C15 C -0.0472(15) 0.2952(11) 0.3770(12)
C16 C 0.0371(15) 0.2584(11) 0.3831(12)
C17 C 0.1282(15) 0.2797(11) 0.3647(12)
C18 C 0.1350(15) 0.3378(11) 0.3401(12)
C19 C 0.0507(15) 0.3746(11) 0.3340(12)
C20 C 0.1117(20) 0.2631(13) 0.0458(13)
C21 C -0.0708(11) 0.1932(7) 0.0613(7)
C22 C -0.1665(11) 0.1686(7) 0.0589(7)
C23 C -0.2492(11) 0.2043(7) 0.0403(7)
C24 C -0.2361(11) 0.2645(7) 0.0242(7)
C25 C -0.1405(11) 0.2891(7) 0.0266(7)
C26 C -0.0578(11) 0.2535(7) 0.0451(7)
O2 O -0.1330(15) 0.3522(9) 0.0181(10)
C27 C -0.1162(20) 0.3623(12) -0.0629(13)
N4 N -0.0630(15) 0.4510(10) 0.1156(10)
N5 N 0.0892(15) 0.2860(9) 0.1986(10)
C28 C -0.2650(11) 0.3597(7) 0.1830(8)
C29 C -0.2697(11) 0.3046(7) 0.2146(8)
C30 C -0.1847(11) 0.2687(7) 0.2235(8)
C31 C -0.0950(11) 0.2879(7) 0.2009(8)
N6 N -0.0903(11) 0.3430(7) 0.1694(8)
C32 C -0.1754(11) 0.3789(7) 0.1604(8)
C33 C -0.1576(20) 0.4317(12) 0.1336(12)
C34 C -0.0846(12) 0.5579(8) 0.1057(8)
C35 C -0.0663(12) 0.6115(8) 0.0740(8)
C36 C -0.0125(12) 0.6108(8) 0.0195(8)
C37 C 0.0231(12) 0.5565(8) -0.0032(8)
C38 C 0.0048(12) 0.5028(8) 0.0286(8)
C39 C -0.0490(12) 0.5036(8) 0.0830(8)
O3 O 0.0491(13) 0.4464(8) 0.0137(9)
C40 C 0.0741(21) 0.4388(12) -0.0537(13)
C41 C 0.1420(14) 0.3463(10) -0.0971(11)
C42 C 0.1371(14) 0.2864(10) -0.1170(11)
C43 C 0.0472(14) 0.2550(10) -0.1172(11)
C44 C -0.0378(14) 0.2835(10) -0.0975(11)
C45 C -0.0328(14) 0.3435(10) -0.0777(11)
C46 C 0.0571(14) 0.3749(10) -0.0775(11)
C47 C 0.0021(22) 0.2519(15) 0.2190(15)
C48 C 0.1946(13) 0.1979(8) 0.1979(8)
C49 C 0.2878(13) 0.1713(8) 0.2115(8)
C50 C 0.3678(13) 0.2058(8) 0.2374(8)
C51 C 0.3545(13) 0.2668(8) 0.2496(8)
C52 C 0.2613(13) 0.2934(8) 0.2359(8)
C53 C 0.1814(13) 0.2590(8) 0.2100(8)
O4 O 0.2379(13) 0.3495(8) 0.2539(9)
C54 C 0.2457(21) 0.3640(13) 0.3087(14)
Cd2 Cd 0.0499(5) 0.0249(1) 0.1308(4)
Ag1 Ag -0.0551(2) -0.0260(2) -0.1257(2)
Ag2 Ag 0.1679(3) 0.0253(2) -0.1139(1)
S1 S -0.1934(8) 0.0242(5) -0.0596(5)
S2 S 0.1130(7) -0.0764(4) -0.0666(5)
S3 S -0.1188(8) 0.1083(6) 0.3029(5)
S4 S 0.0124(8) -0.0816(5) 0.3253(4)
S5 S 0.2994(7) 0.0043(5) 0.3196(5)
S6 S 0.2197(8) 0.1186(4) -0.0477(4)
N7 N -0.0761(18) 0.0205(11) 0.0550(11)
N8 N 0.1110(24) -0.0572(15) 0.0631(17)
N9 N -0.0090(20) 0.0958(13) 0.1956(14)
N10 N -0.0036(17) -0.0509(11) 0.1953(11)
N11 N 0.2021(21) 0.0251(14) 0.1988(15)
N12 N 0.1492(17) 0.0886(11) 0.0695(11)
C55 C -0.1380(29) 0.0189(18) 0.0099(20)
C56 C 0.1063(23) -0.0630(14) 0.0174(16)
C57 C -0.0526(23) 0.0996(14) 0.2350(16)
C58 C -0.0029(22) -0.0617(12) 0.2574(14)
C59 C 0.2336(17) 0.0183(11) 0.2526(11)
C60 C 0.1782(21) 0.0990(13) 0.0159(14)
S3A S -0.1188(8) -0.1083(6) -0.1971(5)
S4A S 0.0124(8) 0.0816(5) -0.1747(4)
S5A S 0.2994(7) -0.0043(5) -0.1804(5)
Ag1A Ag -0.0551(2) 0.0260(2) 0.3743(2)
Ag2A Ag 0.1679(3) -0.0253(2) 0.3861(1)
loop_
_geom_bond_atom_site_label_1
_geom_bond_atom_site_label_2
_geom_bond_site_symmetry_1
_geom_bond_site_symmetry_2
Cd1 N1 1_555 1_555
Cd2 N7 1_555 1_555
Ag1 S1 1_555 1_555
Ag2 S2 1_555 1_555
S1 C55 1_555 1_555
S2 Ag1 1_555 1_555
S3 C57 1_555 1_555
S4 C58 1_555 1_555
S5 C59 1_555 1_555
S6 Ag2 1_555 1_555
N1 C6 1_555 1_555
N2 Cd1 1_555 1_555
C1 C2 1_555 1_555
C2 C3 1_555 1_555
C3 C4 1_555 1_555
C4 N3 1_555 1_555
N3 Cd1 1_555 1_555
C5 C1 1_555 1_555
C6 C5 1_555 1_555
C7 C8 1_555 1_555
C8 C9 1_555 1_555
C9 C10 1_555 1_555
C10 C11 1_555 1_555
C11 C12 1_555 1_555
C12 N1 1_555 1_555
O1 C11 1_555 1_555
C13 O1 1_555 1_555
C14 C15 1_555 1_555
C15 C16 1_555 1_555
C16 C17 1_555 1_555
C17 C18 1_555 1_555
C18 C19 1_555 1_555
C19 C13 1_555 1_555
C20 N2 1_555 1_555
C21 C22 1_555 1_555
C22 C23 1_555 1_555
C23 C24 1_555 1_555
C24 C25 1_555 1_555
C25 C26 1_555 1_555
C26 N2 1_555 1_555
O2 C25 1_555 1_555
C27 O2 1_555 1_555
N4 Cd1 1_555 1_555
N5 Cd1 1_555 1_555
C28 C29 1_555 1_555
C29 C30 1_555 1_555
C30 C31 1_555 1_555
C31 N6 1_555 1_555
N6 Cd1 1_555 1_555
C32 C28 1_555 1_555
C33 N4 1_555 1_555
C34 C35 1_555 1_555
C35 C36 1_555 1_555
C36 C37 1_555 1_555
C37 C38 1_555 1_555
C38 C39 1_555 1_555
C39 N4 1_555 1_555
O3 C38 1_555 1_555
C40 O3 1_555 1_555
C41 C42 1_555 1_555
C42 C43 1_555 1_555
C43 C44 1_555 1_555
C44 C45 1_555 1_555
C45 C27 1_555 1_555
C46 C40 1_555 1_555
C47 N5 1_555 1_555
C48 C49 1_555 1_555
C49 C50 1_555 1_555
C50 C51 1_555 1_555
C51 C52 1_555 1_555
C52 C53 1_555 1_555
C53 N5 1_555 1_555
O4 C52 1_555 1_555
C54 C18 1_555 1_555
N7 C55 1_555 1_555
N8 Cd2 1_555 1_555
N9 Cd2 1_555 1_555
N10 Cd2 1_555 1_555
N11 Cd2 1_555 1_555
N12 Cd2 1_555 1_555
C56 S2 1_555 1_555
C57 N9 1_555 1_555
C58 N10 1_555 1_555
C59 N11 1_555 1_555
C60 S6 1_555 1_555
S3A Ag1 1_555 1_555
S4A Ag1 1_555 1_555
S5A Ag2 1_555 1_555
Ag1A S3 1_555 1_555
Ag2A S4 1_555 1_555
Ag2 S4A 1_555 1_555
S4 Ag1A 1_555 1_555
S5 Ag2A 1_555 1_555
C4 C20 1_555 1_555
N3 C5 1_555 1_555
C7 C12 1_555 1_555
C14 C19 1_555 1_555
C21 C26 1_555 1_555
C31 C47 1_555 1_555
N6 C32 1_555 1_555
C32 C33 1_555 1_555
C34 C39 1_555 1_555
C41 C46 1_555 1_555
C45 C46 1_555 1_555
C48 C53 1_555 1_555
O4 C54 1_555 1_555
N8 C56 1_555 1_555
N12 C60 1_555 1_555

#END
