
#######################################################################
#
#                 Cambridge Crystallographic Data Centre
#                                CCDC 
#
#######################################################################
#
# If this CIF has been generated from an entry in the Cambridge 
# Structural Database, then it will include bibliographic, chemical, 
# crystal, experimental, refinement or atomic coordinate data resulting 
# from the CCDC's data processing and validation procedures.
#
#######################################################################

data_ZOPXOR
_symmetry_cell_setting           triclinic
_symmetry_space_group_name_H-M   'P -1'
_symmetry_Int_Tables_number      2
_space_group_name_Hall           '-P 1'
loop_
_symmetry_equiv_pos_site_id
_symmetry_equiv_pos_as_xyz
1 x,y,z
2 -x,-y,-z
_cell_length_a                   12.839(1)
_cell_length_b                   8.334(1)
_cell_length_c                   12.201(1)
_cell_angle_alpha                106.492(2)
_cell_angle_beta                 105.408(2)
_cell_angle_gamma                73.465(2)
_cell_volume                     1175.51
loop_
_atom_site_label
_atom_site_type_symbol
_atom_site_fract_x
_atom_site_fract_y
_atom_site_fract_z
O1 O 0.2599(5) -0.0990(7) 0.0179(5)
O2 O 0.1188(5) 0.2374(8) -0.0179(5)
O3 O 0.0939(5) 0.0952(8) 0.1351(5)
N1 N 0.3404(6) 0.2109(9) 0.0756(6)
N2 N 0.3038(6) 0.1303(9) 0.2498(6)
C1 C 0.1356(8) 0.3172(10) -0.0891(7)
C2 C 0.0466(9) 0.3697(12) -0.1761(8)
C3 C 0.0564(10) 0.4542(13) -0.2543(9)
C4 C 0.1582(11) 0.4921(14) -0.2459(10)
C5 C 0.2470(9) 0.4437(12) -0.1615(9)
C6 C 0.2399(8) 0.3578(10) -0.0795(8)
C7 C 0.3410(8) 0.3127(10) 0.0088(8)
O4 O 0.4210(6) 0.3737(8) 0.0158(6)
C8 C 0.4386(7) 0.1526(10) 0.1570(7)
C9 C 0.5461(8) 0.1159(12) 0.1408(9)
C10 C 0.6328(9) 0.0483(13) 0.2217(10)
C11 C 0.6152(9) 0.0167(14) 0.3190(10)
C12 C 0.5067(9) 0.0497(12) 0.3336(9)
C13 C 0.4192(8) 0.1146(10) 0.2527(8)
C14 C 0.2673(9) 0.1726(12) 0.3525(8)
O5 O 0.3245(7) 0.2133(12) 0.4472(6)
C15 C 0.1509(8) 0.1603(11) 0.3444(7)
C16 C 0.1206(9) 0.1924(13) 0.4525(8)
C17 C 0.0192(10) 0.1701(15) 0.4588(9)
C18 C -0.0523(10) 0.1139(15) 0.3565(9)
C19 C -0.0253(9) 0.0829(12) 0.2479(8)
C20 C 0.0767(8) 0.1127(10) 0.2409(7)
O6 O 0.2449(9) -0.3378(22) 0.2077(10)
O7 O 0.5544(9) -0.3624(11) 0.3494(7)
C21 C 0.2555(14) -0.3400(23) 0.3189(14)
C22 C 0.5850(15) -0.5213(18) 0.3757(15)
H1 H -0.036(6) 0.360(7) -0.177(6)
H2 H 0.002(6) 0.476(7) -0.329(6)
H3 H 0.152(5) 0.578(7) -0.290(6)
H4 H 0.321(6) 0.471(7) -0.170(6)
H5 H 0.702(6) 0.001(7) 0.204(6)
H6 H 0.478(6) 0.019(7) 0.402(6)
H7 H 0.189(6) 0.220(7) 0.528(6)
H8 H -0.002(6) 0.215(7) 0.549(6)
V1 V 0.2216(1) 0.0986(2) 0.0832(1)
Na1 Na 0.4437(2) -0.3047(3) 0.1384(2)
Na2 Na 0.0926(2) -0.2541(3) 0.0017(2)
Na2A Na -0.0926(2) 0.2541(3) -0.0017(2)
Na1_2 Na 0.4437(2) 0.6953(3) 0.1384(2)
Na1A Na 0.5563(2) 0.3047(3) -0.1384(2)
O4_2 O 0.4210(6) -0.6263(8) 0.0158(6)
O4A O 0.5790(6) -0.3737(8) -0.0158(6)
O2A O -0.1188(5) -0.2374(8) 0.0179(5)
O3A O -0.0939(5) -0.0952(8) -0.1351(5)
loop_
_geom_bond_atom_site_label_1
_geom_bond_atom_site_label_2
_geom_bond_site_symmetry_1
_geom_bond_site_symmetry_2
O1 V1 1_555 1_555
O2 C1 1_555 1_555
O3 C20 1_555 1_555
N1 C7 1_555 1_555
N2 C13 1_555 1_555
C1 C2 1_555 1_555
C2 C3 1_555 1_555
C3 C4 1_555 1_555
C4 C5 1_555 1_555
C5 C6 1_555 1_555
C6 C1 1_555 1_555
C7 C6 1_555 1_555
O4 C7 1_555 1_555
C8 N1 1_555 1_555
C9 C8 1_555 1_555
C10 C9 1_555 1_555
C11 C10 1_555 1_555
C12 C11 1_555 1_555
C13 C8 1_555 1_555
C14 N2 1_555 1_555
O5 C14 1_555 1_555
C15 C14 1_555 1_555
C16 C15 1_555 1_555
C17 C16 1_555 1_555
C18 C17 1_555 1_555
C19 C18 1_555 1_555
C20 C15 1_555 1_555
O6 C21 1_555 1_555
O7 C22 1_555 1_555
H1 C2 1_555 1_555
H2 C3 1_555 1_555
H3 C4 1_555 1_555
H4 C5 1_555 1_555
H5 C10 1_555 1_555
H6 C12 1_555 1_555
H7 C16 1_555 1_555
H8 C17 1_555 1_555
V1 O2 1_555 1_555
Na1 O1 1_555 1_555
Na2 O1 1_555 1_555
Na2A O2 1_555 1_555
Na1_2 O4 1_555 1_555
Na1A O4 1_555 1_555
O4_2 Na1 1_555 1_555
O4A Na1 1_555 1_555
O2A Na2 1_555 1_555
O3A Na2 1_555 1_555
O3 V1 1_555 1_555
O3 Na2 1_555 1_555
O3 Na2A 1_555 1_555
N1 V1 1_555 1_555
N2 V1 1_555 1_555
C12 C13 1_555 1_555
C19 C20 1_555 1_555
O6 Na1 1_555 1_555
O6 Na2 1_555 1_555
O7 Na1 1_555 1_555
Na2A O3A 1_555 1_555

#END
