
#######################################################################
#
#                 Cambridge Crystallographic Data Centre
#                                CCDC 
#
#######################################################################
#
# If this CIF has been generated from an entry in the Cambridge 
# Structural Database, then it will include bibliographic, chemical, 
# crystal, experimental, refinement or atomic coordinate data resulting 
# from the CCDC's data processing and validation procedures.
#
#######################################################################

data_ZORBOZ
_symmetry_cell_setting           monoclinic
_symmetry_space_group_name_H-M   'C 2/c'
_symmetry_Int_Tables_number      15
_space_group_name_Hall           '-C 2yn'
loop_
_symmetry_equiv_pos_site_id
_symmetry_equiv_pos_as_xyz
1 x,y,z
2 -x,y,1/2-z
3 1/2+x,1/2+y,z
4 1/2-x,1/2+y,1/2-z
5 -x,-y,-z
6 x,-y,1/2+z
7 1/2-x,1/2-y,-z
8 1/2+x,1/2-y,1/2+z
_cell_length_a                   19.054(3)
_cell_length_b                   16.004(2)
_cell_length_c                   21.248(3)
_cell_angle_alpha                90
_cell_angle_beta                 100.471(2)
_cell_angle_gamma                90
_cell_volume                     6371.47
loop_
_atom_site_label
_atom_site_type_symbol
_atom_site_fract_x
_atom_site_fract_y
_atom_site_fract_z
Co1 Co 0.68294(3) 0.83570(3) 0.55356(2)
O1 O 0.7784(3) 0.9045(3) 0.7469(2)
O2 O 0.8058(4) 0.8348(3) 0.8307(2)
O3 O 0.87677(17) 0.8970(2) 0.65405(15)
O4 O 0.76593(19) 0.8874(2) 0.6036(2)
O5 O 0.8455(4) 0.6539(5) 0.5405(4)
O6 O 0.7822(3) 0.7674(3) 0.5349(2)
N1 N 0.65502(15) 0.73002(16) 0.59532(12)
N2 N 0.64251(16) 0.59480(17) 0.61179(13)
N3 N 0.60145(15) 0.91038(16) 0.57131(12)
N4 N 0.53880(16) 1.01999(16) 0.59350(12)
N5 N 0.7977(3) 0.8412(3) 0.7735(2)
C1 C 0.65739(18) 0.6548(2) 0.57199(16)
H1 H 0.6683 0.6438 0.5319
C2 C 0.63597(18) 0.7190(2) 0.65471(15)
C3 C 0.6264(2) 0.7777(2) 0.70094(16)
H2 H 0.6315 0.8345 0.6935
C4 C 0.6007(2) 0.6638(3) 0.76837(19)
C5 C 0.6106(2) 0.6056(2) 0.72257(18)
H3 H 0.6054 0.5488 0.7296
C6 C 0.62824(19) 0.6343(2) 0.66605(16)
C7 C 0.5990(3) 0.8135(3) 0.8085(2)
H4 H 0.6077 0.8687 0.7940
H5 H 0.6319 0.8018 0.8473
H6 H 0.5510 0.8101 0.8163
C8 C 0.5794(3) 0.6341(3) 0.8309(2)
H7 H 0.6155 0.6503 0.8664
H8 H 0.5747 0.5744 0.8301
H9 H 0.5347 0.6590 0.8352
C9 C 0.6305(2) 0.5063(2) 0.5938(2)
H10 H 0.6262 0.4735 0.6313
H11 H 0.6706 0.4851 0.5763
C10 C 0.5636(2) 0.4992(2) 0.54506(17)
C11 C 0.5649(2) 0.5098(3) 0.48088(19)
H12 H 0.6083 0.5162 0.4673
C12 C 0.5022(2) 0.5110(2) 0.43665(18)
H13 H 0.5040 0.5187 0.3936
C13 C 0.60434(19) 0.9872(2) 0.59350(15)
H14 H 0.6467 1.0159 0.6077
C14 C 0.52901(19) 0.8909(2) 0.55647(14)
C15 C 0.4939(2) 0.8191(2) 0.53105(16)
H15 H 0.5198 0.7729 0.5218
C16 C 0.4208(2) 0.8171(2) 0.51970(17)
C17 C 0.3809(2) 0.8873(3) 0.53329(17)
C18 C 0.4152(2) 0.9583(2) 0.55886(15)
H16 H 0.3895 1.0045 0.5685
C19 C 0.48950(18) 0.9597(2) 0.56997(14)
C20 C 0.3832(3) 0.7383(3) 0.4917(2)
H17 H 0.3555 0.7504 0.4503
H18 H 0.3524 0.7183 0.5195
H19 H 0.4181 0.6963 0.4876
C21 C 0.3002(2) 0.8855(4) 0.5210(2)
H20 H 0.2842 0.8438 0.5477
H21 H 0.2828 0.8723 0.4769
H22 H 0.2825 0.9392 0.5307
C22 C 0.5247(2) 1.1023(2) 0.61931(15)
H23 H 0.4833 1.1267 0.5923
H24 H 0.5651 1.1386 0.6177
C23 C 0.51183(18) 1.0989(2) 0.68686(14)
C24 C 0.5061(2) 1.0251(2) 0.71888(14)
H25 H 0.5105 0.9745 0.6984
C25 C 0.6091(2) 0.7504(3) 0.75775(17)
C26 C 0.5056(2) 1.1731(2) 0.71923(15)
H26 H 0.5092 1.2237 0.6986
C27 C 0.81489(18) 0.7750(2) 0.67179(16)
C28 C 0.8205(2) 0.7010(3) 0.63902(15)
C29 C 0.8183(2) 0.6244(3) 0.66904(18)
H27 H 0.8227 0.5756 0.6463
C30 C 0.8098(2) 0.6192(3) 0.73184(17)
H28 H 0.8074 0.5675 0.7513
C31 C 0.8049(2) 0.6910(3) 0.76489(18)
H29 H 0.7999 0.6888 0.8076
C32 C 0.8075(2) 0.7670(2) 0.73509(16)
C33 C 0.8208(3) 0.8608(3) 0.6410(2)
C34 C 0.8176(6) 0.7122(6) 0.5667(3)
N1D N 0.34498(15) 0.26998(16) 0.40468(12)
N2D N 0.35749(16) 0.40520(17) 0.38821(13)
C1D C 0.34261(18) 0.3452(2) 0.42801(16)
H1D H 0.3317 0.3562 0.4681
C2D C 0.36403(18) 0.2810(2) 0.34529(15)
C3D C 0.3736(2) 0.2223(2) 0.29906(16)
H2D H 0.3685 0.1655 0.3065
C4D C 0.3993(2) 0.3362(3) 0.23163(19)
C5D C 0.3894(2) 0.3944(2) 0.27743(18)
H3D H 0.3946 0.4512 0.2704
C6D C 0.37176(19) 0.3657(2) 0.33395(16)
C7D C 0.4010(3) 0.1865(3) 0.1915(2)
H4D H 0.3923 0.1313 0.2060
H5D H 0.3681 0.1982 0.1527
H6D H 0.4490 0.1899 0.1837
C8D C 0.4206(3) 0.3659(3) 0.1691(2)
H7D H 0.3845 0.3497 0.1336
H8D H 0.4253 0.4256 0.1699
H9D H 0.4653 0.3410 0.1648
C9D C 0.3695(2) 0.4937(2) 0.4062(2)
H10D H 0.3738 0.5265 0.3687
H11D H 0.3294 0.5149 0.4237
C10D C 0.4364(2) 0.5008(2) 0.45494(17)
C11D C 0.4351(2) 0.4902(3) 0.51912(19)
H12D H 0.3917 0.4838 0.5327
C12D C 0.4978(2) 0.4890(2) 0.56335(18)
H13D H 0.4960 0.4813 0.6064
C25D C 0.3909(2) 0.2496(3) 0.24225(17)
N3A N 0.39855(15) 0.91038(16) 0.92869(12)
N4A N 0.46120(16) 1.01999(16) 0.90650(12)
C13A C 0.39566(19) 0.9872(2) 0.90650(15)
H14A H 0.3533 1.0159 0.8923
C14A C 0.47099(19) 0.8909(2) 0.94353(14)
C15A C 0.5061(2) 0.8191(2) 0.96895(16)
H15A H 0.4802 0.7729 0.9782
C16A C 0.5792(2) 0.8171(2) 0.98030(17)
C17A C 0.6191(2) 0.8873(3) 0.96671(17)
C18A C 0.5848(2) 0.9583(2) 0.94114(15)
H16A H 0.6105 1.0045 0.9315
C19A C 0.51050(18) 0.9597(2) 0.93003(14)
C20A C 0.6168(3) 0.7383(3) 1.0083(2)
H17A H 0.6445 0.7504 1.0497
H18A H 0.6476 0.7183 0.9805
H19A H 0.5819 0.6963 1.0124
C21A C 0.6998(2) 0.8855(4) 0.9790(2)
H20A H 0.7158 0.8438 0.9523
H21A H 0.7172 0.8723 1.0231
H22A H 0.7175 0.9392 0.9693
C22A C 0.4753(2) 1.1023(2) 0.88069(15)
H23A H 0.5167 1.1267 0.9077
H24A H 0.4349 1.1386 0.8823
C23A C 0.48817(18) 1.0989(2) 0.81314(14)
C24A C 0.4939(2) 1.0251(2) 0.78112(14)
H25A H 0.4895 0.9745 0.8016
C26A C 0.4944(2) 1.1731(2) 0.78077(15)
H26A H 0.4908 1.2237 0.8014
Co1A Co 0.31706(3) 0.83570(3) 0.94644(2)
O1A O 0.2216(3) 0.9045(3) 0.7531(2)
O2A O 0.1942(4) 0.8348(3) 0.6693(2)
O3A O 0.12323(17) 0.8970(2) 0.84595(15)
O4A O 0.23407(19) 0.8874(2) 0.8964(2)
O5A O 0.1545(4) 0.6539(5) 0.9595(4)
O6A O 0.2178(3) 0.7674(3) 0.9651(2)
N5A N 0.2023(3) 0.8412(3) 0.7265(2)
C27A C 0.18511(18) 0.7750(2) 0.82821(16)
C28A C 0.1795(2) 0.7010(3) 0.86098(15)
C29A C 0.1817(2) 0.6244(3) 0.83096(18)
H27A H 0.1773 0.5756 0.8537
C30A C 0.1902(2) 0.6192(3) 0.76816(17)
H28A H 0.1926 0.5675 0.7487
C31A C 0.1951(2) 0.6910(3) 0.73511(18)
H29A H 0.2001 0.6888 0.6924
C32A C 0.1925(2) 0.7670(2) 0.76491(16)
C33A C 0.1792(3) 0.8608(3) 0.8590(2)
C34A C 0.1824(6) 0.7122(6) 0.9333(3)
Co1D Co 0.31706(3) 0.16430(3) 0.44644(2)
Co1F Co 0.81706(3) 0.66430(3) 0.44644(2)
Co1G Co 0.18294(3) 0.66430(3) 1.05356(2)
O5F O 0.6545(4) 0.8461(5) 0.4595(4)
O5G O 0.3455(4) 0.8461(5) 1.0405(4)
N1A N 0.34498(15) 0.73002(16) 0.90468(12)
O7 O 0.9711(5) 0.9038(5) 0.7772(4)
H30 H 0.9310 0.8866 0.7619
O8? O 0.8080(4) 0.6233(6) 0.5394(4)
O9? O 0.8691(4) 0.7402(5) 0.5497(3)
C35? C 0.8357(7) 0.6830(8) 0.5715(4)
H31? H 0.9993 0.9082 0.7502
loop_
_geom_bond_atom_site_label_1
_geom_bond_atom_site_label_2
_geom_bond_site_symmetry_1
_geom_bond_site_symmetry_2
Co1 O4 1_555 1_555
O1 N5 1_555 1_555
O2 N5 1_555 1_555
O3 C33 1_555 1_555
O4 C33 1_555 1_555
O5 C34 1_555 1_555
O6 Co1 1_555 1_555
N1 Co1 1_555 1_555
N2 C1 1_555 1_555
N3 Co1 1_555 1_555
N4 C13 1_555 1_555
N5 C32 1_555 1_555
C1 N1 1_555 1_555
H1 C1 1_555 1_555
C2 N1 1_555 1_555
C3 C2 1_555 1_555
H2 C3 1_555 1_555
C4 C5 1_555 1_555
C5 H3 1_555 1_555
C6 N2 1_555 1_555
C7 H4 1_555 1_555
H5 C7 1_555 1_555
H6 C7 1_555 1_555
C8 C4 1_555 1_555
H7 C8 1_555 1_555
H8 C8 1_555 1_555
H9 C8 1_555 1_555
C9 N2 1_555 1_555
H10 C9 1_555 1_555
H11 C9 1_555 1_555
C10 C9 1_555 1_555
C11 C10 1_555 1_555
H12 C11 1_555 1_555
C12 C11 1_555 1_555
H13 C12 1_555 1_555
C13 N3 1_555 1_555
H14 C13 1_555 1_555
C14 N3 1_555 1_555
C15 C14 1_555 1_555
H15 C15 1_555 1_555
C16 C15 1_555 1_555
C17 C16 1_555 1_555
C18 C17 1_555 1_555
H16 C18 1_555 1_555
C19 N4 1_555 1_555
C20 C16 1_555 1_555
H17 C20 1_555 1_555
H18 C20 1_555 1_555
H19 C20 1_555 1_555
C21 C17 1_555 1_555
H20 C21 1_555 1_555
H21 C21 1_555 1_555
H22 C21 1_555 1_555
C22 N4 1_555 1_555
H23 C22 1_555 1_555
H24 C22 1_555 1_555
C23 C22 1_555 1_555
C24 C23 1_555 1_555
H25 C24 1_555 1_555
C25 C3 1_555 1_555
C26 C23 1_555 1_555
H26 C26 1_555 1_555
C27 C28 1_555 1_555
C28 C29 1_555 1_555
C29 H27 1_555 1_555
C30 C29 1_555 1_555
H28 C30 1_555 1_555
C31 C30 1_555 1_555
H29 C31 1_555 1_555
C32 C27 1_555 1_555
C33 C27 1_555 1_555
C34 O6 1_555 1_555
O7 H30 1_555 1_555
N1D C1D 1_555 1_555
N2D C1D 1_555 1_555
C1D H1D 1_555 1_555
C2D N1D 1_555 1_555
C3D C2D 1_555 1_555
H2D C3D 1_555 1_555
C4D C5D 1_555 1_555
C5D H3D 1_555 1_555
C6D N2D 1_555 1_555
C7D H4D 1_555 1_555
H5D C7D 1_555 1_555
H6D C7D 1_555 1_555
C8D C4D 1_555 1_555
H7D C8D 1_555 1_555
H8D C8D 1_555 1_555
H9D C8D 1_555 1_555
C9D N2D 1_555 1_555
H10D C9D 1_555 1_555
H11D C9D 1_555 1_555
C10D C12 1_555 1_555
C11D C10D 1_555 1_555
H12D C11D 1_555 1_555
C12D C10 1_555 1_555
H13D C12D 1_555 1_555
C25D C3D 1_555 1_555
N3A C13A 1_555 1_555
N4A C13A 1_555 1_555
C13A H14A 1_555 1_555
C14A N3A 1_555 1_555
C15A C14A 1_555 1_555
H15A C15A 1_555 1_555
C16A C15A 1_555 1_555
C17A C16A 1_555 1_555
C18A C17A 1_555 1_555
H16A C18A 1_555 1_555
C19A N4A 1_555 1_555
C20A C16A 1_555 1_555
H17A C20A 1_555 1_555
H18A C20A 1_555 1_555
H19A C20A 1_555 1_555
C21A C17A 1_555 1_555
H20A C21A 1_555 1_555
H21A C21A 1_555 1_555
H22A C21A 1_555 1_555
C22A N4A 1_555 1_555
H23A C22A 1_555 1_555
H24A C22A 1_555 1_555
C23A C22A 1_555 1_555
C24A C24 1_555 1_555
H25A C24A 1_555 1_555
C26A C26 1_555 1_555
H26A C26A 1_555 1_555
Co1A N3A 1_555 1_555
O1A N5A 1_555 1_555
O2A N5A 1_555 1_555
O3A C33A 1_555 1_555
O4A Co1A 1_555 1_555
O5A C34A 1_555 1_555
O6A Co1A 1_555 1_555
N5A C32A 1_555 1_555
C27A C28A 1_555 1_555
C28A C29A 1_555 1_555
C29A H27A 1_555 1_555
C30A C29A 1_555 1_555
H28A C30A 1_555 1_555
C31A C30A 1_555 1_555
H29A C31A 1_555 1_555
C32A C27A 1_555 1_555
C33A O4A 1_555 1_555
C34A O6A 1_555 1_555
Co1D N1D 1_555 1_555
Co1F O5 1_555 1_555
Co1G O5A 1_555 1_555
O5F Co1 1_555 1_555
O5G Co1A 1_555 1_555
N1A Co1A 1_555 1_555
C2 C6 1_555 1_555
C4 C25 1_555 1_555
C5 C6 1_555 1_555
C7 C25 1_555 1_555
C14 C19 1_555 1_555
C18 C19 1_555 1_555
C28 C34 1_555 1_555
C31 C32 1_555 1_555
C2D C6D 1_555 1_555
C4D C25D 1_555 1_555
C5D C6D 1_555 1_555
C7D C25D 1_555 1_555
C9D C10D 1_555 1_555
C11D C12D 1_555 1_555
C14A C19A 1_555 1_555
C18A C19A 1_555 1_555
C23A C24A 1_555 1_555
C23A C26A 1_555 1_555
C27A C33A 1_555 1_555
C28A C34A 1_555 1_555
C31A C32A 1_555 1_555

#END
