
#######################################################################
#
#                 Cambridge Crystallographic Data Centre
#                                CCDC 
#
#######################################################################
#
# If this CIF has been generated from an entry in the Cambridge 
# Structural Database, then it will include bibliographic, chemical, 
# crystal, experimental, refinement or atomic coordinate data resulting 
# from the CCDC's data processing and validation procedures.
#
#######################################################################

data_ZOTCOC
_symmetry_cell_setting           triclinic
_symmetry_space_group_name_H-M   'P -1'
_symmetry_Int_Tables_number      2
_space_group_name_Hall           '-P 1'
loop_
_symmetry_equiv_pos_site_id
_symmetry_equiv_pos_as_xyz
1 x,y,z
2 -x,-y,-z
_cell_length_a                   6.48123(14)
_cell_length_b                   10.46454(31)
_cell_length_c                   13.05288(32)
_cell_angle_alpha                96.5792(18)
_cell_angle_beta                 86.8722(29)
_cell_angle_gamma                89.9844(30)
_cell_volume                     878.127
loop_
_atom_site_label
_atom_site_type_symbol
_atom_site_fract_x
_atom_site_fract_y
_atom_site_fract_z
Zr1 Zr 0.25312(14) 0.414420(99) -0.015162(87)
O1 O -0.229971 0.018335 -0.420689
O2 O 0.068960 0.114624 -0.404328
O3 O -0.664243 0.232570 -0.104773
O4 O -0.412459 0.404257 -0.021094
O5 O -0.037080 0.451386 -0.082049
C1 C -0.193337 0.183301 -0.277626
C2 C -0.395616 0.165224 -0.238271
C3 C -0.472894 0.241654 -0.149130
C4 C -0.347894 0.336160 -0.099343
C5 C -0.145615 0.354237 -0.138698
C6 C -0.068337 0.277807 -0.227840
C7 C -0.111424 0.102287 -0.372115
H1 H -0.482953 0.099193 -0.273057
H2 H 0.072994 0.290437 -0.255337
O6 O 0.350047 0.509748 -0.152007
O7 O 0.636343 0.616 -0.133267
O8 O 0.118014 0.558093 -0.293601
C8 C 0.476565 0.618615 -0.292650
C9 C 0.289970 0.606555 -0.342408
C10 C 0.278261 0.643784 -0.441804
C11 C 0.453146 0.693072 -0.491441
C12 C 0.639741 0.705132 -0.441683
C13 C 0.651450 0.667903 -0.342288
C14 C 0.488978 0.579153 -0.187293
H3 H 0.147888 0.635358 -0.476569
H4 H 0.444964 0.719084 -0.560888
H5 H 0.761932 0.739569 -0.476365
H6 H 0.781823 0.676328 -0.307522
O9 O 0.042242 0.267993 0.038885
C15 C 0.018839 0.212584 0.118559
N1 N -0.142996 0.136631 0.130815
C16 C -0.169775 0.073228 0.221983
C17 C -0.290225 0.118366 0.052825
Zr1A Zr -0.25312(14) 0.585580(99) 0.015162(87)
Zr1A_2 Zr 0.74688(14) 0.585580(99) 0.015162(87)
Zr1_2 Zr -0.74688(14) 0.414420(99) -0.015162(87)
O3_2 O 0.335757 0.232570 -0.104773
O4A O 0.412459 0.595743 0.021094
O4_2 O 0.587541 0.404257 -0.021094
O5A O 0.037080 0.548614 0.082049
O7A O 0.363657 0.384 0.133267
loop_
_geom_bond_atom_site_label_1
_geom_bond_atom_site_label_2
_geom_bond_site_symmetry_1
_geom_bond_site_symmetry_2
Zr1 O5 1_555 1_555
O1 C7 1_555 1_555
O2 C7 1_555 1_555
O3 C3 1_555 1_555
O4 C4 1_555 1_555
O5 C5 1_555 1_555
C1 C2 1_555 1_555
C2 C3 1_555 1_555
C3 C4 1_555 1_555
C4 C5 1_555 1_555
C5 C6 1_555 1_555
C6 C1 1_555 1_555
C7 C1 1_555 1_555
H1 C2 1_555 1_555
H2 C6 1_555 1_555
O6 Zr1 1_555 1_555
O7 C14 1_555 1_555
O8 C9 1_555 1_555
C8 C9 1_555 1_555
C9 C10 1_555 1_555
C10 C11 1_555 1_555
C11 C12 1_555 1_555
C12 C13 1_555 1_555
C13 C8 1_555 1_555
C14 O6 1_555 1_555
H3 C10 1_555 1_555
H4 C11 1_555 1_555
H5 C12 1_555 1_555
H6 C13 1_555 1_555
O9 Zr1 1_555 1_555
C15 O9 1_555 1_555
N1 C15 1_555 1_555
C16 N1 1_555 1_555
C17 N1 1_555 1_555
Zr1A O4 1_555 1_555
Zr1A_2 O7 1_555 1_555
Zr1_2 O3 1_555 1_555
O3_2 Zr1 1_555 1_555
O4A Zr1 1_555 1_555
O4_2 Zr1 1_555 1_555
O5A Zr1 1_555 1_555
O7A Zr1 1_555 1_555
O4 Zr1_2 1_555 1_555
O5 Zr1A 1_555 1_555
C8 C14 1_555 1_555
Zr1A O5A 1_555 1_555
Zr1A_2 O4A 1_555 1_555
Zr1A_2 O4_2 1_555 1_555

#END
