
#######################################################################
#
#                 Cambridge Crystallographic Data Centre
#                                CCDC 
#
#######################################################################
#
# If this CIF has been generated from an entry in the Cambridge 
# Structural Database, then it will include bibliographic, chemical, 
# crystal, experimental, refinement or atomic coordinate data resulting 
# from the CCDC's data processing and validation procedures.
#
#######################################################################

data_ZOTPUV
_symmetry_cell_setting           triclinic
_symmetry_space_group_name_H-M   'P -1'
_symmetry_Int_Tables_number      2
_space_group_name_Hall           '-P 1'
loop_
_symmetry_equiv_pos_site_id
_symmetry_equiv_pos_as_xyz
1 x,y,z
2 -x,-y,-z
_cell_length_a                   9.774(2)
_cell_length_b                   10.594(2)
_cell_length_c                   10.908(2)
_cell_angle_alpha                82.495(2)
_cell_angle_beta                 64.825(2)
_cell_angle_gamma                78.043(2)
_cell_volume                     998.861
loop_
_atom_site_label
_atom_site_type_symbol
_atom_site_fract_x
_atom_site_fract_y
_atom_site_fract_z
C1 C 0.6331(8) 0.6091(7) 0.9894(7)
C2 C 0.6482(8) 0.4300(7) 1.1415(7)
H1 H 0.6865 0.3444 1.1572
C3 C -0.1042(8) 0.8857(6) 0.9702(7)
Cd1 Cd 0.80189(6) 0.74692(5) 0.40607(5)
Cd2 Cd 0.29877(6) 0.74455(5) 0.41009(5)
Cl1 Cl 0.5020(2) 0.77021(19) 0.5040(2)
Cl2 Cl 1.1154(2) 0.7206(2) 0.2927(2)
O1 O 0.7987(6) 0.9492(5) 0.4806(5)
N1 N 0.0537(7) 0.8599(5) 0.7192(5)
N2 N 0.7425(6) 0.6255(5) 0.7344(5)
O2 O 0.2439(6) 0.5349(5) 0.5089(5)
C4 C 0.5307(9) 0.6777(7) 1.1046(7)
H2 H 0.4896 0.7632 1.0919
N3 N 0.4893(7) 0.6272(6) 1.2307(6)
C5 C 0.1009(8) 0.6545(6) 0.7039(7)
N4 N 0.7733(7) 0.7165(5) 0.6319(6)
C6 C 0.6742(7) 0.6804(6) 0.8577(7)
N5 N -0.2004(7) 0.8774(6) 1.2140(6)
N6 N 0.1241(7) 0.7655(5) 0.6309(6)
C7 C -0.1122(8) 0.8252(7) 1.0936(7)
H3 H -0.0532 0.7440 1.0927
C8 C 0.7451(8) 0.9541(6) 0.6070(7)
C9 C 0.6626(8) 0.8123(6) 0.8310(7)
H4 H 0.6212 0.8762 0.8940
C10 C -0.2847(8) 0.9940(7) 1.2142(8)
H5 H -0.3480 1.0313 1.2966
C11 C -0.1898(9) 1.0087(7) 0.9722(8)
H6 H -0.1858 1.0542 0.8922
C12 C 0.0166(8) 0.6775(7) 0.8416(7)
H7 H -0.0127 0.6164 0.9131
C13 C 0.7256(8) 0.8297(6) 0.6908(7)
C14 C -0.2803(9) 1.0606(7) 1.0960(8)
H8 H -0.3397 1.1421 1.0999
C15 C 0.5482(8) 0.5030(7) 1.2495(7)
H9 H 0.5206 0.4663 1.3372
C16 C -0.0141(7) 0.8103(6) 0.8489(6)
C17 C 0.6925(8) 0.4813(7) 1.0104(7)
H10 H 0.7607 0.4315 0.9377
C18 C 0.1653(8) 0.5312(6) 0.6342(7)
O3 O 0.1345(6) 0.4296(5) 0.7087(5)
O4 O 0.7088(7) 1.0526(5) 0.6743(5)
Cd1_2 Cd -0.19811(6) 0.74692(5) 1.40607(5)
Cd1A Cd 0.19811(6) 0.25308(5) 0.59393(5)
Cd2_2 Cd 0.29877(6) 0.74455(5) 1.41009(5)
Cd2_3 Cd 1.29877(6) 0.74455(5) 0.41009(5)
Cd2A Cd 0.70123(6) 1.25545(5) 0.58991(5)
Cl2_2 Cl 0.1154(2) 0.7206(2) 0.2927(2)
N3_2 N 0.4893(7) 0.6272(6) 0.2307(6)
N5_2 N 0.7996(7) 0.8774(6) 0.2140(6)
O3A O 0.8655(6) 0.5704(5) 0.2913(5)
O4A O 0.2912(7) 0.9474(5) 0.3257(5)
loop_
_geom_bond_atom_site_label_1
_geom_bond_atom_site_label_2
_geom_bond_site_symmetry_1
_geom_bond_site_symmetry_2
C1 C4 1_555 1_555
C2 H1 1_555 1_555
C3 C7 1_555 1_555
Cd1 Cl1 1_555 1_555
Cd2 Cl1 1_555 1_555
Cl2 Cd1 1_555 1_555
O1 Cd1 1_555 1_555
N1 N6 1_555 1_555
N2 N4 1_555 1_555
O2 Cd2 1_555 1_555
C4 H2 1_555 1_555
N3 C4 1_555 1_555
C5 N6 1_555 1_555
N4 Cd1 1_555 1_555
C6 C1 1_555 1_555
N5 C7 1_555 1_555
N6 Cd2 1_555 1_555
C7 H3 1_555 1_555
C8 O1 1_555 1_555
C9 C6 1_555 1_555
H4 C9 1_555 1_555
C10 N5 1_555 1_555
H5 C10 1_555 1_555
C11 C3 1_555 1_555
H6 C11 1_555 1_555
C12 C5 1_555 1_555
H7 C12 1_555 1_555
C13 N4 1_555 1_555
C14 C10 1_555 1_555
H8 C14 1_555 1_555
C15 C2 1_555 1_555
H9 C15 1_555 1_555
C16 C3 1_555 1_555
C17 C1 1_555 1_555
H10 C17 1_555 1_555
C18 O2 1_555 1_555
O3 C18 1_555 1_555
O4 C8 1_555 1_555
Cd1_2 N5 1_555 1_555
Cd1A O3 1_555 1_555
Cd2_2 N3 1_555 1_555
Cd2_3 Cl2 1_555 1_555
Cd2A O4 1_555 1_555
Cl2_2 Cd2 1_555 1_555
N3_2 Cd2 1_555 1_555
N5_2 Cd1 1_555 1_555
O3A Cd1 1_555 1_555
O4A Cd2 1_555 1_555
C2 C17 1_555 1_555
N1 C16 1_555 1_555
N2 C6 1_555 1_555
N3 C15 1_555 1_555
C5 C18 1_555 1_555
C8 C13 1_555 1_555
C9 C13 1_555 1_555
C11 C14 1_555 1_555
C12 C16 1_555 1_555

#END
