
#######################################################################
#
#                 Cambridge Crystallographic Data Centre
#                                CCDC 
#
#######################################################################
#
# If this CIF has been generated from an entry in the Cambridge 
# Structural Database, then it will include bibliographic, chemical, 
# crystal, experimental, refinement or atomic coordinate data resulting 
# from the CCDC's data processing and validation procedures.
#
#######################################################################

data_ZOTQEG
_symmetry_cell_setting           orthorhombic
_symmetry_space_group_name_H-M   'P c c n'
_symmetry_Int_Tables_number      56
_space_group_name_Hall           '-P 2ab 2ac'
loop_
_symmetry_equiv_pos_site_id
_symmetry_equiv_pos_as_xyz
1 x,y,z
2 1/2-x,1/2-y,z
3 -x,1/2+y,1/2-z
4 1/2+x,-y,1/2-z
5 -x,-y,-z
6 1/2+x,1/2+y,-z
7 x,1/2-y,1/2+z
8 1/2-x,y,1/2+z
_cell_length_a                   16.9547(14)
_cell_length_b                   20.4973(16)
_cell_length_c                   11.7616(9)
_cell_angle_alpha                90
_cell_angle_beta                 90
_cell_angle_gamma                90
_cell_volume                     4087.46
loop_
_atom_site_label
_atom_site_type_symbol
_atom_site_fract_x
_atom_site_fract_y
_atom_site_fract_z
Cd1 Cd 0.06506(2) 0.730504(16) 1.07861(3)
Cd2 Cd 0.2500 0.2500 0.69449(5)
O1 O 0.1115(4) 0.2327(4) 0.6858(5)
O2 O 0.2500 0.2500 0.5090(6)
O3 O 0.2120(4) 0.32528(19) 0.8297(4)
O4 O 0.2500(2) 0.37368(18) 0.6745(3)
O5 O 0.0069(2) 0.29892(17) 0.5447(3)
O6 O -0.0033(3) 0.3311(2) 0.3677(3)
O7 O 0.1030(3) 0.73245(19) 1.2629(3)
O8 O 0.1797(2) 0.7892(2) 1.0358(4)
O9 O -0.0485(3) 0.6695(3) 1.1032(6)
O10 O 0.1269(3) 0.62534(17) 1.0846(3)
O11 O 0.0917(3) 0.66306(17) 0.9184(3)
O12 O 0.1024(3) 0.54043(18) 0.2495(3)
H1 H 0.1132 0.5694 0.2039
O13 O 0.1487(3) 0.61272(17) 0.3728(3)
C1 C 0.1222(3) 0.5593(2) 0.3526(4)
C2 C 0.1076(3) 0.5088(2) 0.4414(4)
C3 C 0.0728(3) 0.4499(2) 0.4128(4)
H2 H 0.0576 0.4418 0.3382
C4 C 0.0606(3) 0.4026(2) 0.4970(4)
C5 C 0.0190(3) 0.3402(2) 0.4676(4)
C6 C 0.1195(3) 0.6180(2) 0.9778(4)
C7 C 0.1442(3) 0.5555(2) 0.9232(4)
C8 C 0.1831(3) 0.5079(2) 0.9858(4)
H3 H 0.1936 0.5146 1.0625
C9 C 0.2064(3) 0.4506(2) 0.9341(4)
H4 H 0.2335 0.4194 0.9762
C10 C 0.1898(3) 0.4388(2) 0.8198(4)
C11 C 0.1476(3) 0.4858(2) 0.7563(3)
C12 C 0.1259(3) 0.5437(2) 0.8096(4)
H5 H 0.0986 0.5752 0.7684
C13 C 0.1215(2) 0.4735(2) 0.6367(3)
C14 C 0.2201(3) 0.3760(2) 0.7696(4)
C15 C 0.1310(3) 0.5208(2) 0.5528(4)
H6 H 0.1532 0.5609 0.5715
C16 C 0.0848(3) 0.4151(2) 0.6072(4)
H7 H 0.0764 0.3837 0.6630
Cd1A Cd 0.43494(2) -0.230504(16) 1.07861(3)
O1A O 0.3885(4) 0.2673(4) 0.6858(5)
O3A O 0.2880(4) 0.17472(19) 0.8297(4)
O4A O 0.2500(2) 0.12632(18) 0.6745(3)
O5A O 0.4931(2) 0.20108(17) 0.5447(3)
O6A O 0.5033(3) 0.1689(2) 0.3677(3)
O7A O 0.3970(3) -0.23245(19) 1.2629(3)
O8A O 0.3203(2) -0.2892(2) 1.0358(4)
O9A O 0.5485(3) -0.1695(3) 1.1032(6)
O10A O 0.3731(3) -0.12534(17) 1.0846(3)
O11A O 0.4083(3) -0.16306(17) 0.9184(3)
O12A O 0.3976(3) -0.04043(18) 0.2495(3)
H1A H 0.3868 -0.0694 0.2039
O13A O 0.3513(3) -0.11272(17) 0.3728(3)
C1A C 0.3778(3) -0.0593(2) 0.3526(4)
C2A C 0.3924(3) -0.0088(2) 0.4414(4)
C3A C 0.4272(3) 0.0501(2) 0.4128(4)
H2A H 0.4424 0.0582 0.3382
C4A C 0.4394(3) 0.0974(2) 0.4970(4)
C5A C 0.4810(3) 0.1598(2) 0.4676(4)
C6A C 0.3805(3) -0.1180(2) 0.9778(4)
C7A C 0.3558(3) -0.0555(2) 0.9232(4)
C8A C 0.3169(3) -0.0079(2) 0.9858(4)
H3A H 0.3064 -0.0146 1.0625
C9A C 0.2936(3) 0.0494(2) 0.9341(4)
H4A H 0.2665 0.0806 0.9762
C10A C 0.3102(3) 0.0612(2) 0.8198(4)
C11A C 0.3524(3) 0.0142(2) 0.7563(3)
C12A C 0.3741(3) -0.0437(2) 0.8096(4)
H5A H 0.4014 -0.0752 0.7684
C13A C 0.3785(2) 0.0265(2) 0.6367(3)
C14A C 0.2799(3) 0.1240(2) 0.7696(4)
C15A C 0.3690(3) -0.0208(2) 0.5528(4)
H6A H 0.3468 -0.0609 0.5715
C16A C 0.4152(3) 0.0849(2) 0.6072(4)
H7A H 0.4236 0.1163 0.6630
Cd1B Cd -0.06506(2) 0.230504(16) 0.42139(3)
Cd1C Cd 0.56506(2) 0.269496(16) 0.42139(3)
O5B O -0.0069(2) 0.79892(17) 0.9553(3)
O5C O 0.5069(2) -0.29892(17) 0.9553(3)
O6B O 0.0033(3) 0.8311(2) 1.1323(3)
O6C O 0.4967(3) -0.3311(2) 1.1323(3)
O14 O 0.2278(7) 0.8285(8) 0.2343(13)
O15 O 0.0747(6) 0.1115(5) 0.6134(9)
loop_
_geom_bond_atom_site_label_1
_geom_bond_atom_site_label_2
_geom_bond_site_symmetry_1
_geom_bond_site_symmetry_2
Cd1 O7 1_555 1_555
Cd2 O1 1_555 1_555
O2 Cd2 1_555 1_555
O3 Cd2 1_555 1_555
O4 Cd2 1_555 1_555
O5 C5 1_555 1_555
O6 C5 1_555 1_555
O8 Cd1 1_555 1_555
O9 Cd1 1_555 1_555
O10 Cd1 1_555 1_555
O11 Cd1 1_555 1_555
O12 H1 1_555 1_555
O13 C1 1_555 1_555
C1 O12 1_555 1_555
C2 C1 1_555 1_555
C3 C2 1_555 1_555
H2 C3 1_555 1_555
C4 C3 1_555 1_555
C5 C4 1_555 1_555
C6 O10 1_555 1_555
C7 C6 1_555 1_555
C8 C7 1_555 1_555
H3 C8 1_555 1_555
C9 C8 1_555 1_555
H4 C9 1_555 1_555
C10 C9 1_555 1_555
C11 C10 1_555 1_555
C12 C7 1_555 1_555
H5 C12 1_555 1_555
C13 C11 1_555 1_555
C14 O3 1_555 1_555
C15 C2 1_555 1_555
H6 C15 1_555 1_555
C16 C4 1_555 1_555
H7 C16 1_555 1_555
Cd1A O7A 1_555 1_555
O1A Cd2 1_555 1_555
O3A Cd2 1_555 1_555
O4A Cd2 1_555 1_555
O5A C5A 1_555 1_555
O6A C5A 1_555 1_555
O8A Cd1A 1_555 1_555
O9A Cd1A 1_555 1_555
O10A Cd1A 1_555 1_555
O11A Cd1A 1_555 1_555
O12A H1A 1_555 1_555
O13A C1A 1_555 1_555
C1A O12A 1_555 1_555
C2A C1A 1_555 1_555
C3A C2A 1_555 1_555
H2A C3A 1_555 1_555
C4A C3A 1_555 1_555
C5A C4A 1_555 1_555
C6A O10A 1_555 1_555
C7A C6A 1_555 1_555
C8A C7A 1_555 1_555
H3A C8A 1_555 1_555
C9A C8A 1_555 1_555
H4A C9A 1_555 1_555
C10A C9A 1_555 1_555
C11A C10A 1_555 1_555
C12A C7A 1_555 1_555
H5A C12A 1_555 1_555
C13A C11A 1_555 1_555
C14A O3A 1_555 1_555
C15A C2A 1_555 1_555
H6A C15A 1_555 1_555
C16A C4A 1_555 1_555
H7A C16A 1_555 1_555
Cd1B O5 1_555 1_555
Cd1C O5A 1_555 1_555
O5B Cd1 1_555 1_555
O5C Cd1A 1_555 1_555
O6B Cd1 1_555 1_555
O6C Cd1A 1_555 1_555
O4 C14 1_555 1_555
O6 Cd1B 1_555 1_555
O11 C6 1_555 1_555
C10 C14 1_555 1_555
C11 C12 1_555 1_555
C13 C15 1_555 1_555
C13 C16 1_555 1_555
O4A C14A 1_555 1_555
O6A Cd1C 1_555 1_555
O11A C6A 1_555 1_555
C10A C14A 1_555 1_555
C11A C12A 1_555 1_555
C13A C15A 1_555 1_555
C13A C16A 1_555 1_555

#END
