
#######################################################################
#
#                 Cambridge Crystallographic Data Centre
#                                CCDC 
#
#######################################################################
#
# If this CIF has been generated from an entry in the Cambridge 
# Structural Database, then it will include bibliographic, chemical, 
# crystal, experimental, refinement or atomic coordinate data resulting 
# from the CCDC's data processing and validation procedures.
#
#######################################################################

data_ZOTQAC
_symmetry_cell_setting           monoclinic
_symmetry_space_group_name_H-M   'P 21/c'
_symmetry_Int_Tables_number      14
_space_group_name_Hall           '-P 2ybc'
loop_
_symmetry_equiv_pos_site_id
_symmetry_equiv_pos_as_xyz
1 x,y,z
2 -x,1/2+y,1/2-z
3 -x,-y,-z
4 x,1/2-y,1/2+z
_cell_length_a                   11.7117(9)
_cell_length_b                   14.6028(12)
_cell_length_c                   16.6148(13)
_cell_angle_alpha                90
_cell_angle_beta                 104.3940(10)
_cell_angle_gamma                90
_cell_volume                     2752.33
loop_
_atom_site_label
_atom_site_type_symbol
_atom_site_fract_x
_atom_site_fract_y
_atom_site_fract_z
Cd1 Cd 0.253561(16) -0.137626(13) 0.616271(12)
Cd2 Cd 0.217343(16) -0.051066(13) 0.813716(12)
N1 N 0.2606(2) -0.00046(16) 0.95366(15)
N2 N 0.3008(4) 0.0710(3) 1.1128(2)
N3 N -0.0176(3) 0.1174(2) 0.91922(17)
N4 N -0.0938(2) 0.12404(19) 0.84284(18)
N5 N 0.0698(2) 0.05877(16) 0.82663(14)
N6 N -0.1836(2) 0.09302(17) 0.52549(15)
O1 O 0.24144(18) -0.28915(14) 0.57082(14)
H1 H 0.1939 -0.2521 0.5849
H2 H 0.3154 -0.2955 0.5780
O2 O -0.06222(15) 0.14946(14) 0.37479(12)
O3 O -0.06468(16) 0.14190(14) 0.23984(12)
O4 O 0.55706(17) 0.12550(16) 0.39157(15)
O5 O 0.53547(17) 0.27639(15) 0.40543(14)
O6 O 0.6505(2) 0.34452(16) 0.63603(14)
O7 O 0.6734(2) 0.28283(19) 0.76067(13)
O8 O 0.24772(15) -0.00419(12) 0.68608(11)
O9 O 0.3669(2) 0.05475(17) 0.79764(13)
C1 C 0.3742(4) 0.0129(3) 1.0918(2)
H3 H 0.4414 -0.0045 1.1318
C2 C 0.3558(3) -0.0232(2) 1.0134(2)
H4 H 0.4104 -0.0640 1.0015
C3 C 0.1847(3) 0.0571(2) 0.97369(19)
C4 C 0.2065(4) 0.0943(3) 1.0531(2)
H5 H 0.1537 0.1367 1.0649
C5 C 0.0794(3) 0.0786(2) 0.90719(19)
C6 C -0.0394(3) 0.0882(2) 0.78834(18)
C7 C -0.0909(3) 0.0865(2) 0.69747(18)
C8 C -0.0183(3) 0.0853(2) 0.64384(19)
H6 H 0.0630 0.0818 0.6644
C9 C -0.0675(3) 0.0894(2) 0.5590(2)
H7 H -0.0173 0.0897 0.5236
C10 C -0.2531(3) 0.0906(3) 0.5782(2)
H8 H -0.3343 0.0911 0.5562
C11 C -0.2110(3) 0.0876(3) 0.6635(2)
H9 H -0.2629 0.0862 0.6976
C12 C 0.3323(2) 0.04992(19) 0.72105(18)
C13 C 0.3833(2) 0.11082(19) 0.66691(17)
C14 C 0.4790(2) 0.1666(2) 0.70084(17)
H10 H 0.5158 0.1632 0.7572
C15 C 0.5195(2) 0.22743(19) 0.65023(17)
C16 C 0.4631(2) 0.23341(19) 0.56606(17)
H11 H 0.4891 0.2760 0.5330
C17 C 0.3683(2) 0.17665(19) 0.53057(16)
C18 C 0.3295(2) 0.11544(19) 0.58235(17)
H12 H 0.2665 0.0769 0.5599
C19 C 0.3055(2) 0.17991(18) 0.44066(16)
C20 C 0.3645(2) 0.1850(2) 0.37692(17)
C21 C 0.2999(2) 0.1802(3) 0.29460(19)
H13 H 0.3390 0.1831 0.2523
C22 C 0.1786(2) 0.1713(2) 0.27433(18)
H14 H 0.1372 0.1676 0.2189
C23 C 0.1179(2) 0.16795(19) 0.33660(17)
C24 C 0.1823(2) 0.17267(18) 0.41836(17)
H15 H 0.1423 0.1710 0.4602
C25 C -0.0134(2) 0.15263(17) 0.31576(18)
C26 C 0.4973(2) 0.1962(2) 0.39317(17)
C27 C 0.6222(2) 0.2903(2) 0.68573(18)
Cd1A Cd 0.746439(16) 0.362374(13) 0.883729(12)
Cd1B Cd -0.253561(16) 0.137626(13) 0.383729(12)
Cd1B_2 Cd 0.746439(16) 0.137626(13) 0.383729(12)
Cd2A Cd 0.782657(16) 0.448934(13) 0.686284(12)
Cd2B Cd -0.217343(16) 0.051066(13) 0.186284(12)
N6B N 0.1836(2) -0.09302(17) 0.47451(15)
O2B O 0.06222(15) -0.14946(14) 0.62521(12)
O3B O 0.06468(16) -0.14190(14) 0.76016(12)
O4B O 0.44294(17) -0.12550(16) 0.60843(15)
O6A O 0.3495(2) -0.15548(16) 0.86397(14)
O7A O 0.3266(2) -0.21717(19) 0.73933(13)
O10 O 0.0725(3) 0.6715(3) 0.4278(2)
H16 H 0.0575 0.6756 0.3752
H17 H 0.1247 0.6838 0.4720
loop_
_geom_bond_atom_site_label_1
_geom_bond_atom_site_label_2
_geom_bond_site_symmetry_1
_geom_bond_site_symmetry_2
Cd1 O1 1_555 1_555
Cd2 N1 1_555 1_555
N1 C2 1_555 1_555
N2 C1 1_555 1_555
N3 N4 1_555 1_555
N4 C6 1_555 1_555
N5 Cd2 1_555 1_555
N6 C9 1_555 1_555
O1 H1 1_555 1_555
H2 O1 1_555 1_555
O2 C25 1_555 1_555
O3 C25 1_555 1_555
O4 C26 1_555 1_555
O5 C26 1_555 1_555
O6 C27 1_555 1_555
O7 C27 1_555 1_555
O8 Cd1 1_555 1_555
O9 Cd2 1_555 1_555
C1 H3 1_555 1_555
C2 C1 1_555 1_555
H4 C2 1_555 1_555
C3 N1 1_555 1_555
C4 N2 1_555 1_555
H5 C4 1_555 1_555
C5 N3 1_555 1_555
C6 N5 1_555 1_555
C7 C6 1_555 1_555
C8 C7 1_555 1_555
H6 C8 1_555 1_555
C9 C8 1_555 1_555
H7 C9 1_555 1_555
C10 N6 1_555 1_555
H8 C10 1_555 1_555
C11 C7 1_555 1_555
H9 C11 1_555 1_555
C12 O8 1_555 1_555
C13 C12 1_555 1_555
C14 C13 1_555 1_555
H10 C14 1_555 1_555
C15 C14 1_555 1_555
C16 C15 1_555 1_555
H11 C16 1_555 1_555
C17 C16 1_555 1_555
C18 C13 1_555 1_555
H12 C18 1_555 1_555
C19 C17 1_555 1_555
C20 C19 1_555 1_555
C21 C20 1_555 1_555
H13 C21 1_555 1_555
C22 C21 1_555 1_555
H14 C22 1_555 1_555
C23 C22 1_555 1_555
C24 C19 1_555 1_555
H15 C24 1_555 1_555
C25 C23 1_555 1_555
C26 C20 1_555 1_555
C27 C15 1_555 1_555
O10 H16 1_555 1_555
H17 O10 1_555 1_555
Cd1A O7 1_555 1_555
Cd1B N6 1_555 1_555
Cd1B_2 O4 1_555 1_555
Cd2A O6 1_555 1_555
Cd2B O3 1_555 1_555
N6B Cd1 1_555 1_555
O2B Cd1 1_555 1_555
O3B Cd2 1_555 1_555
O4B Cd1 1_555 1_555
O6A Cd2 1_555 1_555
O7A Cd1 1_555 1_555
Cd2 O8 1_555 1_555
N5 C5 1_555 1_555
O2 Cd1B 1_555 1_555
O9 C12 1_555 1_555
C3 C4 1_555 1_555
C3 C5 1_555 1_555
C10 C11 1_555 1_555
C17 C18 1_555 1_555
C23 C24 1_555 1_555

#END
