
#######################################################################
#
#                 Cambridge Crystallographic Data Centre
#                                CCDC 
#
#######################################################################
#
# If this CIF has been generated from an entry in the Cambridge 
# Structural Database, then it will include bibliographic, chemical, 
# crystal, experimental, refinement or atomic coordinate data resulting 
# from the CCDC's data processing and validation procedures.
#
#######################################################################

data_ZOWQEH
_symmetry_cell_setting           triclinic
_symmetry_space_group_name_H-M   'P -1'
_symmetry_Int_Tables_number      2
_space_group_name_Hall           '-P 1'
loop_
_symmetry_equiv_pos_site_id
_symmetry_equiv_pos_as_xyz
1 x,y,z
2 -x,-y,-z
_cell_length_a                   10.116(2)
_cell_length_b                   10.664(2)
_cell_length_c                   17.650(4)
_cell_angle_alpha                84.62(3)
_cell_angle_beta                 73.70(3)
_cell_angle_gamma                65.03(3)
_cell_volume                     1656.01
loop_
_atom_site_label
_atom_site_type_symbol
_atom_site_fract_x
_atom_site_fract_y
_atom_site_fract_z
Pb1 Pb 0.2142(1) 0.3824(1) 0.4115(1)
Pb2 Pb 0.0322(1) 0.1326(1) 0.5635(1)
O1 O 0.2931(10) 0.4114(10) 0.5271(5)
O2 O 0.0696(9) 0.4086(9) 0.5529(5)
O3 O -0.0040(10) 0.4833(10) 0.7030(5)
C1 C 0.1708(16) 0.4228(14) 0.5754(8)
C2 C 0.1500(14) 0.4502(14) 0.6606(7)
C3 C 0.0443(8) 0.5273(11) 0.8225(6)
C4 C -0.0158 0.5790 0.9002
C5 C -0.1717 0.6318 0.9341
C6 C -0.2675 0.6328 0.8903
C7 C -0.2073 0.5811 0.8126
C8 C -0.0514 0.5283 0.7787
O4 O 0.2860(9) 0.1367(9) 0.4630(5)
O5 O 0.4810(10) 0.1548(10) 0.3809(6)
O6 O 0.6235(11) -0.1168(10) 0.3400(6)
C9 C 0.4130(16) 0.0843(14) 0.4172(8)
C10 C 0.4941(17) -0.0704(15) 0.4029(9)
C11 C 0.4734(10) -0.0439(13) 0.2449(7)
C12 C 0.4724 -0.0282 0.1657
C13 C 0.6081 -0.0622 0.1068
C14 C 0.7448 -0.1119 0.1271
C15 C 0.7459 -0.1277 0.2063
C16 C 0.6102 -0.0937 0.2652
O7 O 0.0098(10) 0.2774(9) 0.4153(6)
O8 O 0.0471(10) 0.0600(9) 0.4363(5)
O9 O 0.0697(11) 0.0029(10) 0.2930(5)
C17 C 0.0287(13) 0.1638(14) 0.3921(8)
C18 C 0.0323(17) 0.1456(14) 0.3075(8)
C19 C 0.1475(12) -0.1776(10) 0.2028(5)
C20 C 0.1753 -0.2269 0.1269
C21 C 0.1476 -0.1343 0.0659
C22 C 0.0919 0.0075 0.0809
C23 C 0.0640 0.0568 0.1568
C24 C 0.0918 -0.0358 0.2177
O10 O 0.2203(10) 0.6178(10) 0.3765(6)
O11 O -0.2431(11) 0.2255(10) 0.5602(6)
O12 O 0.5167(11) 0.4483(10) 0.3494(6)
C25 C 0.2971(15) 0.6576(15) 0.4033(8)
C26 C 0.4610(15) 0.5706(16) 0.3925(10)
C27 C 0.6084(12) 0.3213(9) 0.2323(7)
C28 C 0.6482 0.3116 0.1501
C29 C 0.6266 0.4307 0.1059
C30 C 0.5655 0.5596 0.1440
C31 C 0.5257 0.5694 0.2262
C32 C 0.5472 0.4502 0.2704
O13 O 0.2512(10) -0.1201(10) 0.5793(6)
H1 H 0.1744 0.5264 0.6653
H2 H 0.2153 0.3692 0.6819
H3 H 0.1516 0.4909 0.7991
H4 H 0.0501 0.5783 0.9303
H5 H -0.2130 0.6674 0.9876
H6 H -0.3747 0.6691 0.9137
H7 H -0.2733 0.5818 0.7825
H8 H 0.4246 -0.1027 0.3934
H9 H 0.5228 -0.1108 0.4500
H10 H 0.3801 -0.0206 0.2855
H11 H 0.3783 0.0060 0.1517
H12 H 0.6073 -0.0514 0.0523
H13 H 0.8382 -0.1353 0.0865
H14 H 0.8399 -0.1619 0.2203
H15 H 0.1072 0.1721 0.2724
H16 H -0.0651 0.2022 0.2990
H17 H 0.1666 -0.2412 0.2447
H18 H 0.2136 -0.3244 0.1166
H19 H 0.1667 -0.1683 0.0137
H20 H 0.0728 0.0711 0.0389
H21 H 0.0257 0.1543 0.1671
H22 H 0.4787 0.5475 0.4438
H23 H 0.5154 0.6242 0.3659
H24 H 0.6232 0.2393 0.2627
H25 H 0.6903 0.2228 0.1239
H26 H 0.6540 0.4240 0.0493
H27 H 0.5507 0.6416 0.1135
H28 H 0.4836 0.6581 0.2524
O2A O -0.0696(9) 0.5914(9) 0.4471(5)
Pb1A Pb -0.2142(1) 0.6176(1) 0.5885(1)
Pb2A Pb -0.0322(1) 0.8674(1) 0.4365(1)
O11A O 0.2431(11) 0.7745(10) 0.4398(6)
Pb2A_2 Pb -0.0322(1) -0.1326(1) 0.4365(1)
O8A O -0.0471(10) -0.0600(9) 0.5637(5)
loop_
_geom_bond_atom_site_label_1
_geom_bond_atom_site_label_2
_geom_bond_site_symmetry_1
_geom_bond_site_symmetry_2
Pb1 O1 1_555 1_555
Pb2 O4 1_555 1_555
O1 C1 1_555 1_555
O2 Pb1 1_555 1_555
O3 C2 1_555 1_555
C1 O2 1_555 1_555
C2 C1 1_555 1_555
C3 C4 1_555 1_555
C4 C5 1_555 1_555
C5 C6 1_555 1_555
C6 C7 1_555 1_555
C7 C8 1_555 1_555
C8 O3 1_555 1_555
O4 Pb1 1_555 1_555
O5 Pb1 1_555 1_555
O6 C10 1_555 1_555
C9 O4 1_555 1_555
C10 C9 1_555 1_555
C11 C12 1_555 1_555
C12 C13 1_555 1_555
C13 C14 1_555 1_555
C14 C15 1_555 1_555
C15 C16 1_555 1_555
C16 O6 1_555 1_555
O7 Pb1 1_555 1_555
O8 Pb2 1_555 1_555
O9 C18 1_555 1_555
C17 O7 1_555 1_555
C18 C17 1_555 1_555
C19 C20 1_555 1_555
C20 C21 1_555 1_555
C21 C22 1_555 1_555
C22 C23 1_555 1_555
C23 C24 1_555 1_555
C24 O9 1_555 1_555
O10 Pb1 1_555 1_555
O11 Pb2 1_555 1_555
O12 C26 1_555 1_555
C25 O10 1_555 1_555
C26 C25 1_555 1_555
C27 C28 1_555 1_555
C28 C29 1_555 1_555
C29 C30 1_555 1_555
C30 C31 1_555 1_555
C31 C32 1_555 1_555
C32 O12 1_555 1_555
O13 Pb2 1_555 1_555
H1 C2 1_555 1_555
H2 C2 1_555 1_555
H3 C3 1_555 1_555
H4 C4 1_555 1_555
H5 C5 1_555 1_555
H6 C6 1_555 1_555
H7 C7 1_555 1_555
H8 C10 1_555 1_555
H9 C10 1_555 1_555
H10 C11 1_555 1_555
H11 C12 1_555 1_555
H12 C13 1_555 1_555
H13 C14 1_555 1_555
H14 C15 1_555 1_555
H15 C18 1_555 1_555
H16 C18 1_555 1_555
H17 C19 1_555 1_555
H18 C20 1_555 1_555
H19 C21 1_555 1_555
H20 C22 1_555 1_555
H21 C23 1_555 1_555
H22 C26 1_555 1_555
H23 C26 1_555 1_555
H24 C27 1_555 1_555
H25 C28 1_555 1_555
H26 C29 1_555 1_555
H27 C30 1_555 1_555
H28 C31 1_555 1_555
O2A Pb1 1_555 1_555
Pb1A O2 1_555 1_555
Pb2A O11A 1_555 1_555
O11A C25 1_555 1_555
Pb2A_2 O8 1_555 1_555
O8A Pb2 1_555 1_555
C3 C8 1_555 1_555
O5 C9 1_555 1_555
C11 C16 1_555 1_555
O8 C17 1_555 1_555
C19 C24 1_555 1_555
C27 C32 1_555 1_555
O2A Pb1A 1_555 1_555
Pb2A_2 O8A 1_555 1_555

#END
