
#######################################################################
#
#                 Cambridge Crystallographic Data Centre
#                                CCDC 
#
#######################################################################
#
# If this CIF has been generated from an entry in the Cambridge 
# Structural Database, then it will include bibliographic, chemical, 
# crystal, experimental, refinement or atomic coordinate data resulting 
# from the CCDC's data processing and validation procedures.
#
#######################################################################

data_ZOXGUQ
_symmetry_cell_setting           monoclinic
_symmetry_space_group_name_H-M   'C 2/c'
_symmetry_Int_Tables_number      15
_space_group_name_Hall           '-C 2yn'
loop_
_symmetry_equiv_pos_site_id
_symmetry_equiv_pos_as_xyz
1 x,y,z
2 -x,y,1/2-z
3 1/2+x,1/2+y,z
4 1/2-x,1/2+y,1/2-z
5 -x,-y,-z
6 x,-y,1/2+z
7 1/2-x,1/2-y,-z
8 1/2+x,1/2-y,1/2+z
_cell_length_a                   22.1280(9)
_cell_length_b                   14.5817(4)
_cell_length_c                   28.0830(12)
_cell_angle_alpha                90
_cell_angle_beta                 116.316(5)
_cell_angle_gamma                90
_cell_volume                     8122.27
loop_
_atom_site_label
_atom_site_type_symbol
_atom_site_fract_x
_atom_site_fract_y
_atom_site_fract_z
Ni1 Ni 0.74600(3) 0.32840(3) 0.74428(2)
Ni2 Ni 0.78102(3) 0.50577(4) 0.46059(2)
O1 O 0.82688(17) 0.33501(18) 0.66539(13)
O2 O 0.77692(15) 0.41707(18) 0.70439(12)
O3 O 0.78698(14) 0.73962(18) 0.71597(12)
O4 O 0.83571(16) 0.82498(18) 0.67718(13)
O5 O 1.21609(14) 0.57218(17) 0.65146(12)
O6 O 1.15278(14) 0.5113(2) 0.57211(12)
O7 O 0.86478(14) 0.55038(19) 0.52755(12)
O8 O 0.91188(17) 0.4119(2) 0.54990(15)
O9 O 0.79111(17) 0.3693(2) 0.48638(14)
H1 H 0.780(3) 0.325(2) 0.4663(17)
O10 O 0.69973(15) 0.4647(2) 0.38990(12)
H2 H 0.6784 0.4171 0.3948
H3 H 0.7131 0.4489 0.3657
O11 O 0.76211(19) 0.6428(2) 0.42998(16)
O12 O 0.78105(14) 0.21600(17) 0.71604(11)
H4 H 0.7479 0.1786 0.6971
H5 H 0.7996 0.2344 0.6957
O13 O 0.71159(14) 0.44105(17) 0.77243(12)
H6 H 0.7438 0.4945 0.7945
H7 H 0.6957 0.4230 0.7946
N1 N 0.72033(18) 0.5309(3) 0.49717(15)
N2 N 0.63179(18) 0.5319(2) 0.51353(16)
N3 N 0.84241(17) 0.3294(2) 0.80790(14)
N4 N 0.92720(18) 0.3007(2) 0.88616(14)
N5 N 1.06775(18) 0.2010(2) 1.10108(14)
N6 N 1.15109(17) 0.1755(2) 1.18056(14)
C1 C 0.8436(2) 0.4968(2) 0.67377(17)
C2 C 0.8206(2) 0.5794(3) 0.68421(16)
H8 H 0.7861 0.5795 0.6946
C3 C 0.8488(2) 0.6624(3) 0.67924(16)
C4 C 0.9013(2) 0.6609(3) 0.66444(17)
H9 H 0.9208 0.7158 0.6615
C5 C 0.9248(2) 0.5793(3) 0.65409(16)
C6 C 0.9840(2) 0.5755(2) 0.64129(17)
C7 C 1.0469(2) 0.6064(3) 0.67937(18)
H10 H 1.0505 0.6336 0.7105
C8 C 1.1037(2) 0.5967(3) 0.67088(17)
H11 H 1.1455 0.6163 0.6966
C9 C 1.0985(2) 0.5577(2) 0.62402(16)
C10 C 1.0362(2) 0.5272(3) 0.58622(17)
H12 H 1.0326 0.5005 0.5550
C11 C 0.9786(2) 0.5363(3) 0.59477(16)
C12 C 0.8133(2) 0.4096(3) 0.68119(17)
C13 C 0.8222(2) 0.7493(3) 0.69168(16)
C14 C 1.1599(2) 0.5464(3) 0.61464(17)
C15 C 0.9130(2) 0.4963(3) 0.55419(18)
C16 C 0.6841(3) 0.5690(4) 0.5567(2)
H13 H 0.6832 0.5911 0.5874
C17 C 0.7378(3) 0.5672(4) 0.5457(2)
C18 C 0.6566(2) 0.5095(3) 0.4792(2)
H14 H 0.6314 0.4820 0.4465
C19 C 0.5138(2) 0.4992(3) 0.45684(19)
H15 H 0.5233 0.4985 0.4277
C20 C 0.5647(2) 0.5166(3) 0.50659(18)
C21 C 0.5515(2) 0.5175(3) 0.55036(19)
H16 H 0.5859 0.5291 0.5841
C22 C 0.9544(2) 0.3239(3) 0.85273(18)
H17 H 1.0001 0.3270 0.8612
C23 C 0.9026(2) 0.3414(3) 0.80522(18)
H18 H 0.9067 0.3590 0.7750
C24 C 0.8597(2) 0.3052(3) 0.85739(18)
H19 H 0.8291 0.2928 0.8709
C25 C 0.9633(2) 0.2756(3) 0.94103(17)
C26 C 0.9347(2) 0.2929(3) 0.97493(19)
C27 C 1.0330(2) 0.2264(3) 1.04618(17)
C28 C 1.0613(2) 0.2121(3) 1.01208(18)
H20 H 1.1040 0.1861 1.0245
C29 C 1.0262(2) 0.2363(3) 0.95925(17)
H21 H 1.0450 0.2260 0.9360
C30 C 1.0393(2) 0.1740(3) 1.13335(19)
H22 H 0.9936 0.1677 1.1239
C31 C 1.0909(2) 0.1583(3) 1.1814(2)
C32 C 1.1348(2) 0.2002(3) 1.13100(18)
H23 H 1.1661 0.2152 1.1184
C33 C 0.9701(2) 0.2677(3) 1.02836(19)
C34 C 0.8949(2) 0.4984(3) 0.65821(17)
H24 H 0.895(2) 0.331(3) 0.9609(19)
H25 H 0.949(2) 0.286(3) 1.0482(18)
H26 H 0.9117(19) 0.450(2) 0.6498(15)
H27 H 1.090(2) 0.144(3) 1.2132(18)
H28 H 0.8328(10) 0.374(3) 0.5043(16)
H29 H 0.727(2) 0.636(5) 0.4012(17)
H30 H 0.746(4) 0.677(4) 0.445(3)
H31 H 0.774(3) 0.585(3) 0.562(2)
N1D N 0.27967(18) 0.4691(3) 0.50283(15)
N2D N 0.36821(18) 0.4681(2) 0.48647(16)
C16D C 0.3159(3) 0.4310(4) 0.4433(2)
H13D H 0.3168 0.4089 0.4126
C17D C 0.2622(3) 0.4328(4) 0.4543(2)
C18D C 0.3434(2) 0.4905(3) 0.5208(2)
H14D H 0.3686 0.5180 0.5535
C19D C 0.4862(2) 0.5008(3) 0.54316(19)
H15D H 0.4767 0.5015 0.5723
C20D C 0.4353(2) 0.4834(3) 0.49341(18)
C21D C 0.4485(2) 0.4825(3) 0.44964(19)
H16D H 0.4141 0.4709 0.4159
H31D H 0.226(3) 0.415(3) 0.438(2)
Ni1D Ni 0.25400(3) 0.67160(3) 0.25572(2)
Ni2D Ni 0.21898(3) 0.49423(4) 0.53941(2)
O1D O 0.17312(17) 0.66499(18) 0.33461(13)
O2D O 0.22308(15) 0.58293(18) 0.29561(12)
O3D O 0.21302(14) 0.26038(18) 0.28403(12)
O4D O 0.16429(16) 0.17502(18) 0.32282(13)
O5D O -0.21609(14) 0.42782(17) 0.34854(12)
O6D O -0.15278(14) 0.4887(2) 0.42789(12)
O7D O 0.13522(14) 0.44962(19) 0.47245(12)
O8D O 0.08812(17) 0.5881(2) 0.45010(15)
O9D O 0.20889(17) 0.6307(2) 0.51362(14)
H1D H 0.220(3) 0.675(2) 0.5337(17)
O10D O 0.30027(15) 0.5353(2) 0.61010(12)
H2D H 0.3216 0.5829 0.6052
H3D H 0.2869 0.5511 0.6343
O11D O 0.23789(19) 0.3572(2) 0.57002(16)
O12D O 0.21895(14) 0.78400(17) 0.28396(11)
H4D H 0.2521 0.8214 0.3029
H5D H 0.2004 0.7656 0.3043
O13D O 0.28841(14) 0.55895(17) 0.22757(12)
H6D H 0.2562 0.5055 0.2055
H7D H 0.3043 0.5770 0.2054
N3D N 0.15759(17) 0.6706(2) 0.19210(14)
N4D N 0.07280(18) 0.6993(2) 0.11384(14)
N5D N -0.06775(18) 0.7990(2) -0.10108(14)
N6D N -0.15109(17) 0.8245(2) -0.18056(14)
C1D C 0.1564(2) 0.5032(2) 0.32623(17)
C2D C 0.1794(2) 0.4206(3) 0.31579(16)
H8D H 0.2139 0.4205 0.3054
C3D C 0.1512(2) 0.3376(3) 0.32076(16)
C4D C 0.0987(2) 0.3391(3) 0.33556(17)
H9D H 0.0792 0.2842 0.3385
C5D C 0.0752(2) 0.4207(3) 0.34591(16)
C6D C 0.0160(2) 0.4245(2) 0.35871(17)
C7D C -0.0469(2) 0.3936(3) 0.32063(18)
H10D H -0.0505 0.3664 0.2895
C8D C -0.1037(2) 0.4033(3) 0.32912(17)
H11D H -0.1455 0.3837 0.3034
C9D C -0.0985(2) 0.4423(2) 0.37598(16)
C10D C -0.0362(2) 0.4728(3) 0.41378(17)
H12D H -0.0326 0.4995 0.4450
C11D C 0.0214(2) 0.4637(3) 0.40523(16)
C12D C 0.1867(2) 0.5904(3) 0.31881(17)
C13D C 0.1778(2) 0.2507(3) 0.30832(16)
C14D C -0.1599(2) 0.4536(3) 0.38536(17)
C15D C 0.0870(2) 0.5037(3) 0.44581(18)
C22D C 0.0456(2) 0.6761(3) 0.14727(18)
H17D H -0.0001 0.6730 0.1388
C23D C 0.0974(2) 0.6586(3) 0.19478(18)
H18D H 0.0933 0.6410 0.2250
C24D C 0.1403(2) 0.6948(3) 0.14261(18)
H19D H 0.1709 0.7072 0.1291
C25D C 0.0367(2) 0.7244(3) 0.05897(17)
C26D C 0.0653(2) 0.7071(3) 0.02507(19)
C27D C -0.0330(2) 0.7736(3) -0.04618(17)
C28D C -0.0613(2) 0.7879(3) -0.01208(18)
H20D H -0.1040 0.8139 -0.0245
C29D C -0.0262(2) 0.7637(3) 0.04075(17)
H21D H -0.0450 0.7740 0.0640
C30D C -0.0393(2) 0.8260(3) -0.13335(19)
H22D H 0.0064 0.8323 -0.1239
C31D C -0.0909(2) 0.8417(3) -0.1814(2)
C32D C -0.1348(2) 0.7998(3) -0.13100(18)
H23D H -0.1661 0.7848 -0.1184
C33D C 0.0299(2) 0.7323(3) -0.02836(19)
C34D C 0.1051(2) 0.5016(3) 0.34179(17)
H24D H 0.105(2) 0.669(3) 0.0391(19)
H25D H 0.051(2) 0.714(3) -0.0482(18)
H26D H 0.0883(19) 0.550(2) 0.3502(15)
H27D H -0.090(2) 0.856(3) -0.2132(18)
H28D H 0.1672(10) 0.626(3) 0.4957(16)
H29D H 0.273(2) 0.364(5) 0.5988(17)
H30D H 0.254(4) 0.323(4) 0.555(3)
Ni1C Ni -0.24600(3) 0.82840(3) -0.24428(2)
Ni1C_2 Ni 0.75400(3) 0.82840(3) 0.75572(2)
Ni1G Ni 0.24600(3) 0.17160(3) 0.24428(2)
Ni1G_2 Ni 1.24600(3) 0.17160(3) 1.24428(2)
Ni2_2 Ni -0.21898(3) 0.50577(4) 0.46059(2)
Ni2D_2 Ni 1.21898(3) 0.49423(4) 0.53941(2)
O3C O 0.71302(14) 0.23962(18) 0.78403(12)
O3G O 0.28698(14) 0.76038(18) 0.21597(12)
O6_2 O 0.15278(14) 0.5113(2) 0.57211(12)
O6D_2 O 0.84722(14) 0.4887(2) 0.42789(12)
N6C N 0.34891(17) 0.6755(2) 0.31944(14)
N6G N 0.65109(17) 0.3245(2) 0.68056(14)
O14 O 0.5025(4) 0.5884(5) 0.6894(5)
H32 H 0.4972 0.5823 0.6580
H33 H 0.5434(16) 0.578(11) 0.7031(12)
O15 O 0.6778(4) 0.7563(4) 0.4670(3)
H34 H 0.6618 0.7478 0.4892
H35 H 0.6620 0.8059 0.4501
O16 O 0.3849(3) 0.6863(4) 0.6224(3)
H36 H 0.381(4) 0.739(3) 0.632(4)
H37 H 0.421(3) 0.657(5) 0.638(4)
O17 O 0.2655(2) 0.6910(3) 0.44456(18)
H38 H 0.234(3) 0.694(5) 0.4144(14)
H39 H 0.240(3) 0.704(4) 0.458(3)
O18 O 0.3646(3) 0.4137(3) 0.3092(2)
H40 H 0.353(4) 0.4680(17) 0.299(3)
H41 H 0.347(4) 0.370(3) 0.288(2)
O19 O 0.4593(7) 0.4128(8) 0.6985(8)
O20? O 0.4187(10) 0.4362(9) 0.6506(9)
loop_
_geom_bond_atom_site_label_1
_geom_bond_atom_site_label_2
_geom_bond_site_symmetry_1
_geom_bond_site_symmetry_2
Ni1 O2 1_555 1_555
Ni2 O7 1_555 1_555
O1 C12 1_555 1_555
O2 C12 1_555 1_555
O3 C13 1_555 1_555
O4 C13 1_555 1_555
O5 C14 1_555 1_555
O6 C14 1_555 1_555
O7 C15 1_555 1_555
O8 C15 1_555 1_555
O9 Ni2 1_555 1_555
H1 O9 1_555 1_555
O10 Ni2 1_555 1_555
H2 O10 1_555 1_555
H3 O10 1_555 1_555
O11 Ni2 1_555 1_555
O12 Ni1 1_555 1_555
H4 O12 1_555 1_555
H5 O12 1_555 1_555
O13 Ni1 1_555 1_555
H6 O13 1_555 1_555
H7 O13 1_555 1_555
N1 Ni2 1_555 1_555
N2 C16 1_555 1_555
N3 Ni1 1_555 1_555
N4 C22 1_555 1_555
N5 C27 1_555 1_555
N6 C31 1_555 1_555
C1 C2 1_555 1_555
C2 H8 1_555 1_555
C3 C2 1_555 1_555
C4 C3 1_555 1_555
H9 C4 1_555 1_555
C5 C4 1_555 1_555
C6 C5 1_555 1_555
C7 C6 1_555 1_555
H10 C7 1_555 1_555
C8 C7 1_555 1_555
H11 C8 1_555 1_555
C9 C8 1_555 1_555
C10 C9 1_555 1_555
H12 C10 1_555 1_555
C11 C6 1_555 1_555
C12 C1 1_555 1_555
C13 C3 1_555 1_555
C14 C9 1_555 1_555
C15 C11 1_555 1_555
C16 H13 1_555 1_555
C17 N1 1_555 1_555
C18 N1 1_555 1_555
H14 C18 1_555 1_555
C19 H15 1_555 1_555
C20 N2 1_555 1_555
C21 C20 1_555 1_555
H16 C21 1_555 1_555
C22 H17 1_555 1_555
C23 N3 1_555 1_555
H18 C23 1_555 1_555
C24 N3 1_555 1_555
H19 C24 1_555 1_555
C25 N4 1_555 1_555
C26 C25 1_555 1_555
C27 C28 1_555 1_555
C28 H20 1_555 1_555
C29 C25 1_555 1_555
H21 C29 1_555 1_555
C30 N5 1_555 1_555
H22 C30 1_555 1_555
C31 C30 1_555 1_555
C32 N5 1_555 1_555
H23 C32 1_555 1_555
C33 C26 1_555 1_555
C34 C1 1_555 1_555
H24 C26 1_555 1_555
H25 C33 1_555 1_555
H26 C34 1_555 1_555
H27 C31 1_555 1_555
H28 O9 1_555 1_555
H29 O11 1_555 1_555
H30 O11 1_555 1_555
H31 C17 1_555 1_555
O14 H32 1_555 1_555
H33 O14 1_555 1_555
O15 H34 1_555 1_555
H35 O15 1_555 1_555
O16 H36 1_555 1_555
H37 O16 1_555 1_555
O17 H38 1_555 1_555
H39 O17 1_555 1_555
O18 H40 1_555 1_555
H41 O18 1_555 1_555
N1D C17D 1_555 1_555
N2D C16D 1_555 1_555
C16D H13D 1_555 1_555
C17D C16D 1_555 1_555
C18D N1D 1_555 1_555
H14D C18D 1_555 1_555
C19D C21 1_555 1_555
H15D C19D 1_555 1_555
C20D N2D 1_555 1_555
C21D C19 1_555 1_555
H16D C21D 1_555 1_555
H31D C17D 1_555 1_555
Ni1D O2D 1_555 1_555
Ni2D N1D 1_555 1_555
O1D C12D 1_555 1_555
O2D C12D 1_555 1_555
O3D C13D 1_555 1_555
O4D C13D 1_555 1_555
O5D C14D 1_555 1_555
O6D C14D 1_555 1_555
O7D Ni2D 1_555 1_555
O8D C15D 1_555 1_555
O9D Ni2D 1_555 1_555
H1D O9D 1_555 1_555
O10D Ni2D 1_555 1_555
H2D O10D 1_555 1_555
H3D O10D 1_555 1_555
O11D Ni2D 1_555 1_555
O12D Ni1D 1_555 1_555
H4D O12D 1_555 1_555
H5D O12D 1_555 1_555
O13D Ni1D 1_555 1_555
H6D O13D 1_555 1_555
H7D O13D 1_555 1_555
N3D Ni1D 1_555 1_555
N4D C22D 1_555 1_555
N5D C27D 1_555 1_555
N6D C31D 1_555 1_555
C1D C2D 1_555 1_555
C2D H8D 1_555 1_555
C3D C2D 1_555 1_555
C4D C3D 1_555 1_555
H9D C4D 1_555 1_555
C5D C4D 1_555 1_555
C6D C5D 1_555 1_555
C7D C6D 1_555 1_555
H10D C7D 1_555 1_555
C8D C7D 1_555 1_555
H11D C8D 1_555 1_555
C9D C8D 1_555 1_555
C10D C9D 1_555 1_555
H12D C10D 1_555 1_555
C11D C6D 1_555 1_555
C12D C1D 1_555 1_555
C13D C3D 1_555 1_555
C14D C9D 1_555 1_555
C15D O7D 1_555 1_555
C22D H17D 1_555 1_555
C23D N3D 1_555 1_555
H18D C23D 1_555 1_555
C24D N3D 1_555 1_555
H19D C24D 1_555 1_555
C25D N4D 1_555 1_555
C26D C25D 1_555 1_555
C27D C28D 1_555 1_555
C28D H20D 1_555 1_555
C29D C25D 1_555 1_555
H21D C29D 1_555 1_555
C30D N5D 1_555 1_555
H22D C30D 1_555 1_555
C31D C30D 1_555 1_555
C32D N5D 1_555 1_555
H23D C32D 1_555 1_555
C33D C26D 1_555 1_555
C34D C1D 1_555 1_555
H24D C26D 1_555 1_555
H25D C33D 1_555 1_555
H26D C34D 1_555 1_555
H27D C31D 1_555 1_555
H28D O9D 1_555 1_555
H29D O11D 1_555 1_555
H30D O11D 1_555 1_555
Ni1C N6D 1_555 1_555
Ni1C_2 O3 1_555 1_555
Ni1G O3D 1_555 1_555
Ni1G_2 N6 1_555 1_555
Ni2_2 O6D 1_555 1_555
Ni2D_2 O6 1_555 1_555
O3C Ni1 1_555 1_555
O3G Ni1D 1_555 1_555
O6_2 Ni2D 1_555 1_555
O6D_2 Ni2 1_555 1_555
N6C Ni1D 1_555 1_555
N6G Ni1 1_555 1_555
N2 C18 1_555 1_555
N4 C24 1_555 1_555
N6 C32 1_555 1_555
C5 C34 1_555 1_555
C10 C11 1_555 1_555
C16 C17 1_555 1_555
C19 C20 1_555 1_555
C22 C23 1_555 1_555
C27 C33 1_555 1_555
C28 C29 1_555 1_555
N2D C18D 1_555 1_555
C19D C20D 1_555 1_555
C20D C21D 1_555 1_555
N4D C24D 1_555 1_555
N6D C32D 1_555 1_555
C5D C34D 1_555 1_555
C10D C11D 1_555 1_555
C11D C15D 1_555 1_555
C22D C23D 1_555 1_555
C27D C33D 1_555 1_555
C28D C29D 1_555 1_555

#END
