
#######################################################################
#
#                 Cambridge Crystallographic Data Centre
#                                CCDC 
#
#######################################################################
#
# If this CIF has been generated from an entry in the Cambridge 
# Structural Database, then it will include bibliographic, chemical, 
# crystal, experimental, refinement or atomic coordinate data resulting 
# from the CCDC's data processing and validation procedures.
#
#######################################################################

data_ZOXPEJ
_symmetry_cell_setting           triclinic
_symmetry_space_group_name_H-M   'P -1'
_symmetry_Int_Tables_number      2
_space_group_name_Hall           '-P 1'
loop_
_symmetry_equiv_pos_site_id
_symmetry_equiv_pos_as_xyz
1 x,y,z
2 -x,-y,-z
_cell_length_a                   7.3730(4)
_cell_length_b                   13.0724(7)
_cell_length_c                   13.8570(8)
_cell_angle_alpha                100.721(5)
_cell_angle_beta                 101.817(5)
_cell_angle_gamma                98.064(5)
_cell_volume                     1262.17
loop_
_atom_site_label
_atom_site_type_symbol
_atom_site_fract_x
_atom_site_fract_y
_atom_site_fract_z
Co1 Co 1.0000 0.5000 0.5000
O1 O 0.8147(6) 0.3653(3) 0.4035(3)
N1 N 1.0853(6) 0.5508(3) 0.2128(3)
O2 O 0.7879(6) 0.5904(3) 0.4771(3)
N2 N 1.0816(6) 0.5402(3) 0.3696(3)
C1 C 1.0217(8) 0.4919(4) 0.2744(4)
H1 H 0.943(9) 0.439(5) 0.252(4)
C2 C 1.0433(8) 0.5236(4) 0.1040(4)
C3 C 1.0173(8) 0.4209(4) 0.0529(4)
H2 H 1.0303 0.3677 0.0886
C4 C 1.1925(9) 0.6430(5) 0.2742(4)
H3 H 1.250(9) 0.691(5) 0.249(5)
C5 C 1.0284(9) 0.6048(4) 0.0519(4)
H4 H 1.050(9) 0.679(5) 0.085(5)
C6 C 1.1882(9) 0.6357(5) 0.3691(4)
H5 H 1.2487 0.6878 0.4266
H6 H 0.732(7) 0.611(4) 0.520(3)
H7 H 0.842(8) 0.305(3) 0.399(5)
H8 H 0.767(9) 0.604(5) 0.420(2)
H9 H 0.706(5) 0.376(5) 0.402(7)
N1A N 0.9147(6) 0.4492(3) -0.2128(3)
N2A N 0.9184(6) 0.4598(3) -0.3696(3)
C1A C 0.9783(8) 0.5081(4) -0.2744(4)
H1A H 1.057(9) 0.561(5) -0.252(4)
C2A C 0.9567(8) 0.4764(4) -0.1040(4)
C3A C 0.9827(8) 0.5791(4) -0.0529(4)
H2A H 0.9697 0.6323 -0.0886
C4A C 0.8075(9) 0.3570(5) -0.2742(4)
H3A H 0.750(9) 0.309(5) -0.249(5)
C5A C 0.9716(9) 0.3952(4) -0.0519(4)
H4A H 0.950(9) 0.321(5) -0.085(5)
C6A C 0.8118(9) 0.3643(5) -0.3691(4)
H5A H 0.7513 0.3122 -0.4266
O1A O 1.1853(6) 0.6347(3) 0.5965(3)
H7A H 1.158(8) 0.695(3) 0.601(5)
H9A H 1.294(5) 0.624(5) 0.598(7)
O2A O 1.2121(6) 0.4096(3) 0.5229(3)
H6A H 1.268(7) 0.389(4) 0.480(3)
H8A H 1.233(9) 0.396(5) 0.580(2)
Co1_2 Co 1.0000 0.5000 -0.5000
N2A_2 N 0.9184(6) 0.4598(3) 0.6304(3)
Co2 Co 0.28302(13) 0.17519(6) 0.66141(6)
O3 O 0.3306(6) 0.3375(3) 0.6939(3)
O4 O 0.5694(5) 0.6867(3) 0.6000(3)
O5 O 0.9303(6) 1.1684(3) 1.1068(3)
O6 O 0.8284(6) 0.7613(3) 0.7192(3)
O7 O 0.3142(7) 0.3485(3) 0.8549(3)
O8 O 0.9264(6) 1.0207(3) 1.1647(3)
O9 O 0.3497(6) 1.0189(3) 0.6819(3)
O10 O 0.5248(6) 1.1664(3) 0.7751(3)
C7 C 0.5768(7) 0.6623(4) 0.7663(4)
O11 O 0.1061(8) 0.1642(4) 0.7679(4)
O12 O 0.4161(8) 0.1663(4) 0.5349(4)
H10 H 0.4146 0.2239 0.5098
H11 H 0.3573 0.1113 0.4850
C8 C 0.6659(8) 0.7083(4) 0.6902(4)
C9 C 0.5605(7) 0.7243(4) 0.8570(4)
C10 C 0.8785(8) 1.0660(4) 1.0979(4)
C11 C 0.5128(8) 0.5539(4) 0.7436(4)
H12 H 0.533(8) 0.518(4) 0.686(5)
C12 C 0.7552(8) 1.0099(4) 0.9961(4)
C13 C 0.7156(8) 0.8997(4) 0.9737(4)
H13 H 0.759(8) 0.870(5) 1.015(5)
C14 C 0.6072(7) 0.8436(4) 0.8799(4)
C15 C 0.3569(8) 0.3886(4) 0.7851(4)
C16 C 0.4886(8) 0.6747(4) 0.9246(4)
H14 H 0.4805 0.7151 0.9858
C17 C 0.4365(8) 0.5043(4) 0.8100(4)
C18 C 0.5706(7) 1.0090(4) 0.8322(4)
C19 C 0.4286(8) 0.5661(4) 0.9027(4)
H15 H 0.379(8) 0.537(4) 0.950(5)
C20 C 0.6842(8) 1.0649(4) 0.9248(4)
H16 H 0.703(8) 1.134(5) 0.941(4)
C21 C 0.4778(8) 1.0688(4) 0.7586(4)
C22 C 0.5341(8) 0.8988(4) 0.8096(4)
H17 H 0.4599 0.8619 0.7468
O13 O 0.0413(8) 0.1285(5) 0.5578(4)
H18 H -0.0509 0.0920 0.5712
H19 H 0.0501 0.1399 0.5018
H20 H 1.007(7) 1.190(5) 1.160(3)
H21 H 0.025(7) 0.163(5) 0.800(4)
H22 H 0.171(14) 0.219(5) 0.803(7)
Co2_2 Co 0.28302(13) 1.17519(6) 0.66141(6)
O9_2 O 0.3497(6) 0.0189(3) 0.6819(3)
O10_2 O 0.5248(6) 0.1664(3) 0.7751(3)
O14 O -0.0810(7) 0.1672(3) 0.3797(3)
H23 H -0.161(8) 0.112(4) 0.354(5)
H24 H 0.000(9) 0.188(6) 0.350(5)
O15 O -0.278(2) 0.0564(17) 0.5933(17)
O16? O -0.234(3) -0.002(3) 0.6288(18)
loop_
_geom_bond_atom_site_label_1
_geom_bond_atom_site_label_2
_geom_bond_site_symmetry_1
_geom_bond_site_symmetry_2
Co1 O1 1_555 1_555
O1 H7 1_555 1_555
N1 C1 1_555 1_555
O2 Co1 1_555 1_555
N2 Co1 1_555 1_555
C1 N2 1_555 1_555
H1 C1 1_555 1_555
C2 N1 1_555 1_555
C3 C2 1_555 1_555
H2 C3 1_555 1_555
C4 N1 1_555 1_555
H3 C4 1_555 1_555
C5 C2 1_555 1_555
H4 C5 1_555 1_555
C6 N2 1_555 1_555
H5 C6 1_555 1_555
H6 O2 1_555 1_555
H8 O2 1_555 1_555
H9 O1 1_555 1_555
Co2 O3 1_555 1_555
O3 C15 1_555 1_555
O4 C8 1_555 1_555
O5 C10 1_555 1_555
O6 C8 1_555 1_555
O7 C15 1_555 1_555
O8 C10 1_555 1_555
O9 C21 1_555 1_555
O10 C21 1_555 1_555
C7 C8 1_555 1_555
O11 Co2 1_555 1_555
O12 Co2 1_555 1_555
H10 O12 1_555 1_555
H11 O12 1_555 1_555
C9 C7 1_555 1_555
C10 C12 1_555 1_555
C11 C7 1_555 1_555
H12 C11 1_555 1_555
C12 C13 1_555 1_555
C13 H13 1_555 1_555
C14 C9 1_555 1_555
C15 C17 1_555 1_555
C16 C9 1_555 1_555
H14 C16 1_555 1_555
C17 C11 1_555 1_555
C18 C20 1_555 1_555
C19 C16 1_555 1_555
H15 C19 1_555 1_555
C20 C12 1_555 1_555
H16 C20 1_555 1_555
C21 C18 1_555 1_555
C22 C14 1_555 1_555
H17 C22 1_555 1_555
O13 Co2 1_555 1_555
H18 O13 1_555 1_555
H19 O13 1_555 1_555
H20 O5 1_555 1_555
H21 O11 1_555 1_555
H22 O11 1_555 1_555
O14 H23 1_555 1_555
H24 O14 1_555 1_555
N1A C1A 1_555 1_555
N2A C1A 1_555 1_555
C1A H1A 1_555 1_555
C2A N1A 1_555 1_555
C3A C5 1_555 1_555
H2A C3A 1_555 1_555
C4A N1A 1_555 1_555
H3A C4A 1_555 1_555
C5A C3 1_555 1_555
H4A C5A 1_555 1_555
C6A N2A 1_555 1_555
H5A C6A 1_555 1_555
O1A Co1 1_555 1_555
H7A O1A 1_555 1_555
H9A O1A 1_555 1_555
O2A Co1 1_555 1_555
H6A O2A 1_555 1_555
H8A O2A 1_555 1_555
Co1_2 N2A 1_555 1_555
N2A_2 Co1 1_555 1_555
Co2_2 O9 1_555 1_555
O9_2 Co2 1_555 1_555
O10_2 Co2 1_555 1_555
C4 C6 1_555 1_555
O10 Co2_2 1_555 1_555
C13 C14 1_555 1_555
C17 C19 1_555 1_555
C18 C22 1_555 1_555
C2A C3A 1_555 1_555
C2A C5A 1_555 1_555
C4A C6A 1_555 1_555

#END
