
#######################################################################
#
#                 Cambridge Crystallographic Data Centre
#                                CCDC 
#
#######################################################################
#
# If this CIF has been generated from an entry in the Cambridge 
# Structural Database, then it will include bibliographic, chemical, 
# crystal, experimental, refinement or atomic coordinate data resulting 
# from the CCDC's data processing and validation procedures.
#
#######################################################################

data_ZOXTOX
_symmetry_cell_setting           monoclinic
_symmetry_space_group_name_H-M   'C 2/c'
_symmetry_Int_Tables_number      15
_space_group_name_Hall           '-C 2yn'
loop_
_symmetry_equiv_pos_site_id
_symmetry_equiv_pos_as_xyz
1 x,y,z
2 -x,y,1/2-z
3 1/2+x,1/2+y,z
4 1/2-x,1/2+y,1/2-z
5 -x,-y,-z
6 x,-y,1/2+z
7 1/2-x,1/2-y,-z
8 1/2+x,1/2-y,1/2+z
_cell_length_a                   24.1744(13)
_cell_length_b                   9.1789(5)
_cell_length_c                   18.9734(10)
_cell_angle_alpha                90
_cell_angle_beta                 114.0500(10)
_cell_angle_gamma                90
_cell_volume                     3844.61
loop_
_atom_site_label
_atom_site_type_symbol
_atom_site_fract_x
_atom_site_fract_y
_atom_site_fract_z
Yb1 Yb 0.542120(6) 0.693092(16) 0.495871(9)
Zn1 Zn 0.712595(19) 0.49132(5) 0.33675(2)
O1 O 0.61579(15) 0.6496(3) 0.4596(2)
O2 O 0.66533(15) 0.6360(3) 0.38426(19)
O3 O 0.54675(11) 0.4330(3) 0.49615(15)
O4 O 0.53977(14) 0.1968(3) 0.4806(2)
O5 O 0.60706(13) 0.8756(3) 0.55526(17)
O6 O 0.69424(13) 0.9804(3) 0.57288(16)
O7 O 0.57670(12) 0.6293(3) 0.62139(16)
O8 O 0.62069(13) 0.5411(3) 0.73975(17)
O9 O 0.51907(15) 0.9074(3) 0.41891(18)
H1 H 0.5435 0.9734 0.4430
H2 H 0.4836 0.9343 0.4097
O10 O 0.48243(14) 0.6311(3) 0.37021(17)
H3 H 0.4620 0.5570 0.3701
H4 H 0.5040 0.6129 0.3461
N1 N 0.68517(15) 0.3504(4) 0.40524(19)
N2 N 0.64286(18) 0.1830(4) 0.4495(2)
H5 H 0.6340 0.0968 0.4625
N3 N 0.75706(15) 0.8301(4) 0.70335(19)
N4 N 0.72864(15) 0.6618(4) 0.76654(19)
C1 C 0.64129(17) 0.5787(4) 0.4240(2)
C2 C 0.64540(16) 0.4172(4) 0.4304(2)
C3 C 0.61803(19) 0.3130(4) 0.4578(2)
C4 C 0.56592(18) 0.3155(4) 0.4793(2)
C5 C 0.6831(2) 0.2088(4) 0.4183(3)
C6 C 0.7187(2) 0.0932(6) 0.4006(3)
H6 H 0.7573 0.1317 0.4069
H7 H 0.6971 0.0608 0.3484
H8 H 0.7245 0.0127 0.4352
C7 C 0.66376(17) 0.8894(4) 0.5913(2)
C8 C 0.69667(17) 0.8012(4) 0.6613(2)
C9 C 0.67933(17) 0.6960(4) 0.7009(2)
C10 C 0.62204(17) 0.6186(4) 0.6866(2)
C11 C 0.77447(17) 0.7429(4) 0.7654(2)
C12 C 0.8370(2) 0.7411(7) 0.8265(3)
H9 H 0.8654 0.7313 0.8032
H10 H 0.8414 0.6604 0.8606
H11 H 0.8446 0.8304 0.8553
Yb1D Yb 0.457880(6) 0.306908(16) 0.504129(9)
Zn1E Zn 0.712595(19) 0.50868(5) 0.83675(2)
Zn1F Zn 0.787405(19) 1.00868(5) 0.66325(2)
O3D O 0.45325(11) 0.5670(3) 0.50385(15)
O4D O 0.46023(14) 0.8032(3) 0.5194(2)
O6F O 0.80576(13) 0.5196(3) 0.42712(16)
O8E O 0.62069(13) 0.4589(3) 0.23975(17)
N3F N 0.74294(15) 0.6699(4) 0.29665(19)
N4E N 0.72864(15) 0.3382(4) 0.26654(19)
O11 O 0.43679(14) 1.0543(3) 0.29896(17)
H12 H 0.4266 1.0033 0.2590
H13 H 0.4514 1.1340 0.2926
O12 O 0.4003(4) 0.8875(9) 0.1634(5)
H14 H 0.3758 0.8184 0.1453
H15 H 0.4036 0.9339 0.1274
O13 O 0.5000 0.7285(16) 0.2500
H16 H 0.4703 0.7843 0.2286
H16A H 0.5297 0.7843 0.2714
O14 O 0.5000 1.3153(17) 0.2500
H17 H 0.5230 1.3666 0.2869
H17A H 0.4770 1.3666 0.2131
loop_
_geom_bond_atom_site_label_1
_geom_bond_atom_site_label_2
_geom_bond_site_symmetry_1
_geom_bond_site_symmetry_2
Yb1 O1 1_555 1_555
Zn1 O2 1_555 1_555
O1 C1 1_555 1_555
O2 C1 1_555 1_555
O3 Yb1 1_555 1_555
O4 C4 1_555 1_555
O5 Yb1 1_555 1_555
O6 C7 1_555 1_555
O7 Yb1 1_555 1_555
O8 C10 1_555 1_555
O9 Yb1 1_555 1_555
H1 O9 1_555 1_555
H2 O9 1_555 1_555
O10 Yb1 1_555 1_555
H3 O10 1_555 1_555
H4 O10 1_555 1_555
N1 Zn1 1_555 1_555
N2 H5 1_555 1_555
N3 C8 1_555 1_555
N4 C9 1_555 1_555
C1 C2 1_555 1_555
C2 N1 1_555 1_555
C3 N2 1_555 1_555
C4 O3 1_555 1_555
C5 N1 1_555 1_555
C6 C5 1_555 1_555
H6 C6 1_555 1_555
H7 C6 1_555 1_555
H8 C6 1_555 1_555
C7 O5 1_555 1_555
C8 C7 1_555 1_555
C9 C8 1_555 1_555
C10 O7 1_555 1_555
C11 N3 1_555 1_555
C12 C11 1_555 1_555
H9 C12 1_555 1_555
H10 C12 1_555 1_555
H11 C12 1_555 1_555
O11 H12 1_555 1_555
H13 O11 1_555 1_555
O12 H14 1_555 1_555
H15 O12 1_555 1_555
O13 H16 1_555 1_555
O14 H17 1_555 1_555
Yb1D O3 1_555 1_555
Zn1E O8 1_555 1_555
Zn1F O6 1_555 1_555
O3D Yb1 1_555 1_555
O4D Yb1 1_555 1_555
O6F Zn1 1_555 1_555
O8E Zn1 1_555 1_555
N3F Zn1 1_555 1_555
N4E Zn1 1_555 1_555
H16A O13 1_555 1_555
H17A O14 1_555 1_555
O4 Yb1D 1_555 1_555
N2 C5 1_555 1_555
N3 Zn1F 1_555 1_555
N4 C11 1_555 1_555
N4 Zn1E 1_555 1_555
C2 C3 1_555 1_555
C3 C4 1_555 1_555
C9 C10 1_555 1_555
Yb1D O3D 1_555 1_555

#END
