
#######################################################################
#
#                 Cambridge Crystallographic Data Centre
#                                CCDC 
#
#######################################################################
#
# If this CIF has been generated from an entry in the Cambridge 
# Structural Database, then it will include bibliographic, chemical, 
# crystal, experimental, refinement or atomic coordinate data resulting 
# from the CCDC's data processing and validation procedures.
#
#######################################################################

data_ZOXVEP
_symmetry_cell_setting           monoclinic
_symmetry_space_group_name_H-M   'C 2/c'
_symmetry_Int_Tables_number      15
_space_group_name_Hall           '-C 2yn'
loop_
_symmetry_equiv_pos_site_id
_symmetry_equiv_pos_as_xyz
1 x,y,z
2 -x,y,1/2-z
3 1/2+x,1/2+y,z
4 1/2-x,1/2+y,1/2-z
5 -x,-y,-z
6 x,-y,1/2+z
7 1/2-x,1/2-y,-z
8 1/2+x,1/2-y,1/2+z
_cell_length_a                   24.3237(17)
_cell_length_b                   9.1523(6)
_cell_length_c                   19.0813(13)
_cell_angle_alpha                90
_cell_angle_beta                 114.6250(10)
_cell_angle_gamma                90
_cell_volume                     3861.51
loop_
_atom_site_label
_atom_site_type_symbol
_atom_site_fract_x
_atom_site_fract_y
_atom_site_fract_z
Dy1 Dy 0.542466(12) 0.69471(3) 0.494620(16)
Co1 Co 0.71135(4) 0.48810(10) 0.33688(5)
O1 O 0.6155(3) 0.6465(6) 0.4559(4)
O2 O 0.6672(2) 0.6305(6) 0.3847(3)
O3 O 0.5471(2) 0.4319(5) 0.4951(3)
O4 O 0.5402(2) 0.1945(5) 0.4815(3)
O5 O 0.6103(2) 0.8767(6) 0.5539(3)
O6 O 0.6981(2) 0.9799(5) 0.5749(3)
O7 O 0.5784(2) 0.6328(6) 0.6224(3)
O8 O 0.6229(2) 0.5434(6) 0.7408(3)
O9 O 0.5175(3) 0.9121(6) 0.4164(3)
H1 H 0.5417 0.9792 0.4400
H2 H 0.4820 0.9381 0.4073
O10 O 0.4803(2) 0.6300(6) 0.3665(3)
H3 H 0.4598 0.5559 0.3661
H4 H 0.5020 0.6112 0.3430
N1 N 0.6833(3) 0.3430(7) 0.4039(3)
N2 N 0.6417(3) 0.1776(6) 0.4491(4)
H5 H 0.6329 0.0917 0.4625
N3 N 0.7582(2) 0.8363(6) 0.7074(3)
N4 N 0.7300(3) 0.6670(6) 0.7694(3)
C1 C 0.6417(3) 0.5739(7) 0.4225(4)
C2 C 0.6446(3) 0.4117(7) 0.4289(4)
C3 C 0.6169(3) 0.3092(8) 0.4565(4)
C4 C 0.5658(3) 0.3127(7) 0.4794(4)
C5 C 0.6814(3) 0.2021(8) 0.4180(4)
C6 C 0.7161(4) 0.0856(10) 0.4013(6)
H6 H 0.7574 0.1159 0.4180
H7 H 0.6989 0.0668 0.3469
H8 H 0.7145 -0.0018 0.4282
C7 C 0.6669(3) 0.8908(7) 0.5928(4)
C8 C 0.6984(3) 0.8050(7) 0.6637(4)
C9 C 0.6809(3) 0.7003(7) 0.7032(4)
C10 C 0.6243(3) 0.6218(8) 0.6877(4)
C11 C 0.7746(3) 0.7518(9) 0.7696(4)
C12 C 0.8369(4) 0.7522(13) 0.8327(5)
H9 H 0.8659 0.7578 0.8109
H10 H 0.8432 0.6641 0.8623
H11 H 0.8415 0.8351 0.8656
Dy1D Dy 0.457534(12) 0.30529(3) 0.505380(16)
Co1E Co 0.71135(4) 0.51190(10) 0.83688(5)
Co1F Co 0.78865(4) 1.01190(10) 0.66312(5)
O3D O 0.4529(2) 0.5681(5) 0.5049(3)
O4D O 0.4598(2) 0.8055(5) 0.5185(3)
O6F O 0.8019(2) 0.5201(5) 0.4251(3)
O8E O 0.6229(2) 0.4566(6) 0.2408(3)
N3F N 0.7418(2) 0.6637(6) 0.2926(3)
N4E N 0.7300(3) 0.3330(6) 0.2694(3)
O11 O 0.4347(2) 1.0532(6) 0.2953(3)
H12 H 0.4247 0.9952 0.2579
H13 H 0.4492 1.1298 0.2856
O12 O 0.4059(2) 0.8595(6) 0.1795(3)
H14 H 0.3799 0.7931 0.1696
H15 H 0.3976 0.9149 0.1413
loop_
_geom_bond_atom_site_label_1
_geom_bond_atom_site_label_2
_geom_bond_site_symmetry_1
_geom_bond_site_symmetry_2
Dy1 O1 1_555 1_555
Co1 O2 1_555 1_555
O1 C1 1_555 1_555
O2 C1 1_555 1_555
O3 Dy1 1_555 1_555
O4 C4 1_555 1_555
O5 Dy1 1_555 1_555
O6 C7 1_555 1_555
O7 Dy1 1_555 1_555
O8 C10 1_555 1_555
O9 Dy1 1_555 1_555
H1 O9 1_555 1_555
H2 O9 1_555 1_555
O10 Dy1 1_555 1_555
H3 O10 1_555 1_555
H4 O10 1_555 1_555
N1 Co1 1_555 1_555
N2 H5 1_555 1_555
N3 C8 1_555 1_555
N4 C9 1_555 1_555
C1 C2 1_555 1_555
C2 N1 1_555 1_555
C3 N2 1_555 1_555
C4 O3 1_555 1_555
C5 N1 1_555 1_555
C6 C5 1_555 1_555
H6 C6 1_555 1_555
H7 C6 1_555 1_555
H8 C6 1_555 1_555
C7 O5 1_555 1_555
C8 C7 1_555 1_555
C9 C8 1_555 1_555
C10 O7 1_555 1_555
C11 N3 1_555 1_555
C12 C11 1_555 1_555
H9 C12 1_555 1_555
H10 C12 1_555 1_555
H11 C12 1_555 1_555
O11 H12 1_555 1_555
H13 O11 1_555 1_555
O12 H14 1_555 1_555
H15 O12 1_555 1_555
Dy1D O3 1_555 1_555
Co1E O8 1_555 1_555
Co1F O6 1_555 1_555
O3D Dy1 1_555 1_555
O4D Dy1 1_555 1_555
O6F Co1 1_555 1_555
O8E Co1 1_555 1_555
N3F Co1 1_555 1_555
N4E Co1 1_555 1_555
O4 Dy1D 1_555 1_555
N2 C5 1_555 1_555
N3 Co1F 1_555 1_555
N4 C11 1_555 1_555
N4 Co1E 1_555 1_555
C2 C3 1_555 1_555
C3 C4 1_555 1_555
C9 C10 1_555 1_555
Dy1D O3D 1_555 1_555

#END
