
#######################################################################
#
#                 Cambridge Crystallographic Data Centre
#                                CCDC 
#
#######################################################################
#
# If this CIF has been generated from an entry in the Cambridge 
# Structural Database, then it will include bibliographic, chemical, 
# crystal, experimental, refinement or atomic coordinate data resulting 
# from the CCDC's data processing and validation procedures.
#
#######################################################################

data_ZOXZIV
_symmetry_cell_setting           orthorhombic
_symmetry_space_group_name_H-M   'C c c m'
_symmetry_Int_Tables_number      66
_space_group_name_Hall           '-C 2 2n'
loop_
_symmetry_equiv_pos_site_id
_symmetry_equiv_pos_as_xyz
1 x,y,z
2 -x,-y,z
3 x,-y,1/2-z
4 -x,y,1/2-z
5 1/2+x,1/2+y,z
6 1/2-x,1/2-y,z
7 1/2+x,1/2-y,1/2-z
8 1/2-x,1/2+y,1/2-z
9 -x,-y,-z
10 x,y,-z
11 -x,y,1/2+z
12 x,-y,1/2+z
13 1/2-x,1/2-y,-z
14 1/2+x,1/2+y,-z
15 1/2-x,1/2+y,1/2+z
16 1/2+x,1/2-y,1/2+z
_cell_length_a                   14.547(1)
_cell_length_b                   16.135(2)
_cell_length_c                   13.803(2)
_cell_angle_alpha                90
_cell_angle_beta                 90
_cell_angle_gamma                90
_cell_volume                     3239.78
loop_
_atom_site_label
_atom_site_type_symbol
_atom_site_fract_x
_atom_site_fract_y
_atom_site_fract_z
Nb1 Nb 0.0000 -0.23077(5) 0.2500
Cu1 Cu 0.5000 0.00000 0.2500
Cu2 Cu 0.0000 0.00000 0.2500
F1 F -0.0374(3) -0.2434(2) 0.1179(3)
F2 F -0.1255(3) -0.2442(2) 0.2898(4)
F3 F 0.0000 -0.3594(3) 0.2500
O1 O 0.0000 -0.1207(3) 0.2500
N1 N 0.3599(5) 0.00000 0.2500
N2 N -0.1687(5) 0.00000 0.2500
N3 N 0.5000 0.00000 0.3990(6)
N4 N 0.0000 0.00000 0.3995(6)
C1 C 0.3124(5) 0.0668(4) 0.2758(5)
C2 C -0.2170(6) -0.0662(4) 0.2748(6)
C3 C 0.5278(5) 0.0663(4) 0.4504(6)
C4 C -0.0489(5) 0.0558(4) 0.4489(6)
H1 H 0.344 -0.116 0.205
H2 H -0.185 -0.115 0.293
H3 H 0.450 -0.111 0.416
H4 H -0.079 0.093 0.419
F1C F 0.0374(3) -0.2434(2) 0.3821(3)
F2C F 0.1255(3) -0.2442(2) 0.2102(4)
Cu2D Cu 0.5000 -0.50000 0.2500
O1E O 0.5000 -0.3793(3) 0.2500
Nb1E Nb 0.5000 -0.26923(5) 0.2500
F1E F 0.5374(3) -0.2566(2) 0.1179(3)
F1F F 0.4626(3) -0.2566(2) 0.3821(3)
F2E F 0.6255(3) -0.2558(2) 0.2898(4)
F2F F 0.3745(3) -0.2558(2) 0.2102(4)
F3E F 0.5000 -0.1406(3) 0.2500
Cu1D Cu 0.0000 -0.50000 0.2500
F3D F 0.5000 0.1406(3) 0.2500
C2A C 0.2170(6) 0.0662(4) 0.2748(6)
N2A N 0.1687(5) 0.00000 0.2500
O1A O 0.0000 0.1207(3) 0.2500
C4I C -0.0489(5) 0.0558(4) 0.5511(6)
N4I N 0.0000 0.00000 0.6005(6)
Cu2I Cu 0.0000 0.00000 0.7500
C4H C 0.0489(5) -0.0558(4) 0.5511(6)
C4A C 0.0489(5) -0.0558(4) 0.4489(6)
H4A H 0.079 -0.093 0.419
H4H H 0.079 -0.093 0.581
H4I H -0.079 0.093 0.581
N4B N 0.0000 0.00000 0.1005(6)
C2C C 0.2170(6) -0.0662(4) 0.2252(6)
C1B C 0.3124(5) -0.0668(4) 0.2242(5)
H2C H 0.185 -0.115 0.207
H2A H 0.185 0.115 0.293
H1B H 0.344 0.116 0.295
N1A N 0.6401(5) 0.00000 0.2500
C3I C 0.5278(5) 0.0663(4) 0.5496(6)
N3H N 0.5000 0.00000 0.6010(6)
Cu1H Cu 0.5000 0.00000 0.7500
C3H C 0.4722(5) -0.0663(4) 0.5496(6)
C3A C 0.4722(5) -0.0663(4) 0.4504(6)
H3I H 0.450 -0.111 0.584
H3H H 0.550 0.111 0.584
H3A H 0.550 0.111 0.416
N3B N 0.5000 0.00000 0.1010(6)
C1A C -0.3124(5) -0.0668(4) 0.2758(5)
N1A_2 N -0.3599(5) 0.00000 0.2500
Cu1_2 Cu -0.5000 0.00000 0.2500
C1C C -0.3124(5) 0.0668(4) 0.2242(5)
C2B C -0.2170(6) 0.0662(4) 0.2252(6)
H2B H -0.185 0.115 0.207
H1A H -0.344 0.116 0.205
H1C H -0.344 -0.116 0.295
O2 O 0.220(1) 0.481(1) 0.5000
N5 N -0.250 -0.250 0.099(2)
C5 C -0.248(1) -0.3213(8) 0.0522(9)
H5 H -0.234 -0.387 0.041
C5I C -0.248(1) -0.3213(8) -0.0522(9)
N5I N -0.250 -0.250 -0.099(2)
C5L C -0.252(1) -0.1787(8) -0.0522(9)
C5E C -0.252(1) -0.1787(8) 0.0522(9)
H5E H -0.266 -0.113 0.041
H5L H -0.266 -0.113 -0.041
H5I H -0.234 -0.387 -0.041
N6 N 0.269(1) 0.1663(9) 0.5000
C6 C 0.337(1) 0.221(1) 0.5000
C7 C 0.177(1) 0.197(1) 0.5000
H6 H 0.403 0.192 0.500
H7 H 0.151 0.143 0.500
C7E C 0.323(1) 0.303(1) 0.5000
N6E N 0.231(1) 0.3337(9) 0.5000
C6E C 0.163(1) 0.279(1) 0.5000
H6E H 0.097 0.308 0.500
H7E H 0.349 0.357 0.500
loop_
_geom_bond_atom_site_label_1
_geom_bond_atom_site_label_2
_geom_bond_site_symmetry_1
_geom_bond_site_symmetry_2
Nb1 F1 1_555 1_555
Cu1 N1 1_555 1_555
Cu2 O1 1_555 1_555
F2 Nb1 1_555 1_555
F3 Nb1 1_555 1_555
O1 Nb1 1_555 1_555
N1 C1 1_555 1_555
N2 Cu2 1_555 1_555
N3 Cu1 1_555 1_555
N4 Cu2 1_555 1_555
N5 C5 1_555 1_555
N6 C6 1_555 1_555
C1 C2A 1_555 1_555
C2 N2 1_555 1_555
C3 N3 1_555 1_555
C4 N4 1_555 1_555
C5 H5 1_555 1_555
C6 H6 1_555 1_555
C7 N6 1_555 1_555
H1 C1B 1_555 1_555
H2 C2 1_555 1_555
H3 C3A 1_555 1_555
H4 C4 1_555 1_555
H7 C7 1_555 1_555
F1C Nb1 1_555 1_555
F2C Nb1 1_555 1_555
Cu2D O1E 1_555 1_555
O1E Nb1E 1_555 1_555
Nb1E F1E 1_555 1_555
F1F Nb1E 1_555 1_555
F2E Nb1E 1_555 1_555
F2F Nb1E 1_555 1_555
F3E Cu1 1_555 1_555
Cu1D F3 1_555 1_555
F3D Cu1 1_555 1_555
C2A N2A 1_555 1_555
N2A Cu2 1_555 1_555
O1A Cu2 1_555 1_555
C4I C4 1_555 1_555
N4I C4I 1_555 1_555
Cu2I N4I 1_555 1_555
C4H N4I 1_555 1_555
C4A N4 1_555 1_555
H4A C4A 1_555 1_555
H4H C4H 1_555 1_555
H4I C4I 1_555 1_555
N4B Cu2 1_555 1_555
C2C N2A 1_555 1_555
C1B N1 1_555 1_555
H2C C2C 1_555 1_555
H2A C2A 1_555 1_555
H1B C1 1_555 1_555
N1A Cu1 1_555 1_555
C3I C3 1_555 1_555
N3H C3I 1_555 1_555
Cu1H N3H 1_555 1_555
C3H N3H 1_555 1_555
C3A N3 1_555 1_555
H3I C3H 1_555 1_555
H3H C3I 1_555 1_555
H3A C3 1_555 1_555
N3B Cu1 1_555 1_555
C1A C2 1_555 1_555
N1A_2 C1A 1_555 1_555
Cu1_2 N1A_2 1_555 1_555
C1C N1A_2 1_555 1_555
C2B N2 1_555 1_555
H2B C2B 1_555 1_555
H1A C1C 1_555 1_555
H1C C1A 1_555 1_555
C5I C5 1_555 1_555
N5I C5I 1_555 1_555
C5L N5I 1_555 1_555
C5E N5 1_555 1_555
H5E C5E 1_555 1_555
H5L C5L 1_555 1_555
H5I C5I 1_555 1_555
C7E C6 1_555 1_555
N6E C7E 1_555 1_555
C6E C7 1_555 1_555
H6E C6E 1_555 1_555
H7E C7E 1_555 1_555
Nb1E F3E 1_555 1_555
C4H C4A 1_555 1_555
C2C C1B 1_555 1_555
C3H C3A 1_555 1_555
C1C C2B 1_555 1_555
C5L C5E 1_555 1_555
N6E C6E 1_555 1_555

#END
