
#######################################################################
#
#                 Cambridge Crystallographic Data Centre
#                                CCDC 
#
#######################################################################
#
# If this CIF has been generated from an entry in the Cambridge 
# Structural Database, then it will include bibliographic, chemical, 
# crystal, experimental, refinement or atomic coordinate data resulting 
# from the CCDC's data processing and validation procedures.
#
#######################################################################

data_ZOZCEY
_symmetry_cell_setting           triclinic
_symmetry_space_group_name_H-M   'P -1'
_symmetry_Int_Tables_number      2
_space_group_name_Hall           '-P 1'
loop_
_symmetry_equiv_pos_site_id
_symmetry_equiv_pos_as_xyz
1 x,y,z
2 -x,-y,-z
_cell_length_a                   8.8534(8)
_cell_length_b                   10.6080(11)
_cell_length_c                   10.8364(9)
_cell_angle_alpha                101.364(5)
_cell_angle_beta                 112.692(4)
_cell_angle_gamma                105.953(5)
_cell_volume                     848.454
loop_
_atom_site_label
_atom_site_type_symbol
_atom_site_fract_x
_atom_site_fract_y
_atom_site_fract_z
U1 U 0.82382(2) 0.302407(13) 0.723434(14)
O1 O 1.0133(4) 0.3932(3) 0.7098(3)
O2 O 0.6341(4) 0.2059(3) 0.7350(3)
O3 O 0.6693(4) 0.1798(3) 0.4683(3)
O4 O 0.6343(4) 0.3723(2) 0.5389(3)
O5 O 0.1760(4) 0.4906(3) 0.1619(3)
O6 O 0.0007(4) 0.3229(3) -0.0450(3)
O7 O 0.8814(4) 0.0915(2) 0.6670(3)
N1 N 0.8538(5) -0.1217(3) 0.5487(3)
C1 C 0.5076(5) 0.2579(3) 0.2845(4)
C2 C 0.3673(6) 0.3227(3) 0.2605(4)
H1 H 0.2782 0.2739 0.2869
H2 H 0.4251 0.4222 0.3216
C3 C 0.2749(5) 0.3104(3) 0.1035(4)
C4 C 0.4173(6) 0.3897(4) 0.0667(4)
H3 H 0.3600 0.3848 -0.0337
H4 H 0.4750 0.4892 0.1279
C5 C 0.5568(6) 0.3267(4) 0.0890(4)
H5 H 0.6471 0.3784 0.0639
C6 C 0.6481(6) 0.3385(4) 0.2458(4)
H6 H 0.7065 0.4378 0.3073
H7 H 0.7403 0.2989 0.2618
C7 C 0.4196(6) 0.1032(4) 0.1878(4)
H8 H 0.5107 0.0627 0.2022
H9 H 0.3313 0.0497 0.2124
C8 C 0.3280(6) 0.0937(4) 0.0322(4)
H10 H 0.2698 -0.0065 -0.0303
C9 C 0.1871(6) 0.1558(4) 0.0095(4)
H11 H 0.0976 0.1042 0.0340
H12 H 0.1258 0.1470 -0.0918
C10 C 0.4668(7) 0.1730(4) -0.0065(4)
H13 H 0.5568 0.1315 0.0067
H14 H 0.4084 0.1656 -0.1076
C11 C 0.6061(6) 0.2703(4) 0.4386(4)
C12 C 0.1405(6) 0.3778(3) 0.0727(4)
C13 C 0.7951(6) -0.0215(4) 0.5649(4)
H15 H 0.6806 -0.0357 0.4951
C14 C 0.7468(6) -0.2528(4) 0.4284(4)
H16 H 0.6388 -0.2465 0.3621
H17 H 0.7145 -0.3294 0.4632
H18 H 0.8156 -0.2703 0.3794
C15 C 1.0282(6) -0.1081(4) 0.6509(4)
H19 H 1.0973 -0.0108 0.7142
H20 H 1.0904 -0.1364 0.5999
H21 H 1.0139 -0.1680 0.7072
U1_2 U -0.17618(2) 0.302407(13) -0.276566(14)
U1A U 0.17618(2) 0.697593(13) 0.276566(14)
O5A O 0.8240(4) 0.5094(3) 0.8381(3)
O6_2 O 1.0007(4) 0.3229(3) 0.9550(3)
loop_
_geom_bond_atom_site_label_1
_geom_bond_atom_site_label_2
_geom_bond_site_symmetry_1
_geom_bond_site_symmetry_2
U1 O1 1_555 1_555
O2 U1 1_555 1_555
O3 U1 1_555 1_555
O4 U1 1_555 1_555
O5 C12 1_555 1_555
O6 C12 1_555 1_555
O7 U1 1_555 1_555
N1 C13 1_555 1_555
C1 C2 1_555 1_555
C2 H1 1_555 1_555
H2 C2 1_555 1_555
C3 C2 1_555 1_555
C4 C3 1_555 1_555
H3 C4 1_555 1_555
H4 C4 1_555 1_555
C5 C4 1_555 1_555
H5 C5 1_555 1_555
C6 C1 1_555 1_555
H6 C6 1_555 1_555
H7 C6 1_555 1_555
C7 C1 1_555 1_555
H8 C7 1_555 1_555
H9 C7 1_555 1_555
C8 C7 1_555 1_555
H10 C8 1_555 1_555
C9 C3 1_555 1_555
H11 C9 1_555 1_555
H12 C9 1_555 1_555
C10 C5 1_555 1_555
H13 C10 1_555 1_555
H14 C10 1_555 1_555
C11 O3 1_555 1_555
C12 C3 1_555 1_555
C13 O7 1_555 1_555
H15 C13 1_555 1_555
C14 N1 1_555 1_555
H16 C14 1_555 1_555
H17 C14 1_555 1_555
H18 C14 1_555 1_555
C15 N1 1_555 1_555
H19 C15 1_555 1_555
H20 C15 1_555 1_555
H21 C15 1_555 1_555
U1_2 O6 1_555 1_555
U1A O5 1_555 1_555
O5A U1 1_555 1_555
O6_2 U1 1_555 1_555
O4 C11 1_555 1_555
C1 C11 1_555 1_555
C5 C6 1_555 1_555
C8 C9 1_555 1_555
C8 C10 1_555 1_555

#END
