
#######################################################################
#
#                 Cambridge Crystallographic Data Centre
#                                CCDC 
#
#######################################################################
#
# If this CIF has been generated from an entry in the Cambridge 
# Structural Database, then it will include bibliographic, chemical, 
# crystal, experimental, refinement or atomic coordinate data resulting 
# from the CCDC's data processing and validation procedures.
#
#######################################################################

data_ZOZDID
_symmetry_cell_setting           monoclinic
_symmetry_space_group_name_H-M   'C 2/c'
_symmetry_Int_Tables_number      15
_space_group_name_Hall           '-C 2yn'
loop_
_symmetry_equiv_pos_site_id
_symmetry_equiv_pos_as_xyz
1 x,y,z
2 -x,y,1/2-z
3 1/2+x,1/2+y,z
4 1/2-x,1/2+y,1/2-z
5 -x,-y,-z
6 x,-y,1/2+z
7 1/2-x,1/2-y,-z
8 1/2+x,1/2-y,1/2+z
_cell_length_a                   17.3216(11)
_cell_length_b                   12.0844(8)
_cell_length_c                   11.9978(6)
_cell_angle_alpha                90
_cell_angle_beta                 110.940(4)
_cell_angle_gamma                90
_cell_volume                     2345.53
loop_
_atom_site_label
_atom_site_type_symbol
_atom_site_fract_x
_atom_site_fract_y
_atom_site_fract_z
U1 U 0.5000 0.5000 0.0000
Cu1 Cu 0.5000 0.25225(8) 0.2500
O1 O 0.5522(2) 0.4146(3) -0.0695(3)
O2 O 0.5868(2) 0.4327(3) 0.1817(3)
O3 O 0.6152(2) 0.2703(3) 0.2735(3)
O4 O 0.9131(2) 0.1459(3) 0.4954(3)
O5 O 0.9690(2) 0.3015(3) 0.5871(3)
C1 C 0.7296(3) 0.3701(4) 0.2568(4)
C2 C 0.7821(3) 0.3064(4) 0.3694(4)
H1 H 0.7652 0.2276 0.3620
H2 H 0.7735 0.3377 0.4403
C3 C 0.8741(3) 0.3157(4) 0.3841(4)
C4 C 0.9003(3) 0.4376(4) 0.3969(4)
H3 H 0.9594 0.4437 0.4065
H4 H 0.8931 0.4698 0.4684
C5 C 0.8466(4) 0.5009(4) 0.2842(6)
H5 H 0.8635 0.5805 0.2919
C6 C 0.7554(4) 0.4926(4) 0.2700(5)
H6 H 0.7211 0.5344 0.1985
H7 H 0.7470 0.5248 0.3406
C7 C 0.7429(3) 0.3202(5) 0.1464(4)
H8 H 0.7261 0.2414 0.1373
H9 H 0.7088 0.3603 0.0735
C8 C 0.8352(3) 0.3302(6) 0.1631(4)
H10 H 0.8442 0.2979 0.0920
C9 C 0.8874(3) 0.2667(5) 0.2748(4)
H11 H 0.9466 0.2718 0.2848
H12 H 0.8714 0.1877 0.2664
C10 C 0.8597(4) 0.4504(6) 0.1747(5)
H13 H 0.8260 0.4909 0.1018
H14 H 0.9186 0.4573 0.1834
C11 C 0.6376(3) 0.3569(4) 0.2370(4)
C12 C 0.9232(2) 0.2508(4) 0.4966(4)
O2A O 0.4132(2) 0.4327(3) 0.3183(3)
O3A O 0.3848(2) 0.2703(3) 0.2265(3)
O4A O 0.0869(2) 0.1459(3) 0.0046(3)
O5A O 0.0310(2) 0.3015(3) -0.0871(3)
C1A C 0.2704(3) 0.3701(4) 0.2432(4)
C2A C 0.2179(3) 0.3064(4) 0.1306(4)
H1A H 0.2348 0.2276 0.1380
H2A H 0.2265 0.3377 0.0597
C3A C 0.1259(3) 0.3157(4) 0.1159(4)
C4A C 0.0997(3) 0.4376(4) 0.1031(4)
H3A H 0.0406 0.4437 0.0935
H4A H 0.1069 0.4698 0.0316
C5A C 0.1534(4) 0.5009(4) 0.2158(6)
H5A H 0.1365 0.5805 0.2081
C6A C 0.2446(4) 0.4926(4) 0.2300(5)
H6A H 0.2789 0.5344 0.3015
H7A H 0.2530 0.5248 0.1594
C7A C 0.2571(3) 0.3202(5) 0.3536(4)
H8A H 0.2739 0.2414 0.3627
H9A H 0.2912 0.3603 0.4265
C8A C 0.1648(3) 0.3302(6) 0.3369(4)
H10A H 0.1558 0.2979 0.4080
C9A C 0.1126(3) 0.2667(5) 0.2252(4)
H11A H 0.0534 0.2718 0.2152
H12A H 0.1286 0.1877 0.2336
C10A C 0.1403(4) 0.4504(6) 0.3253(5)
H13A H 0.1740 0.4909 0.3982
H14A H 0.0814 0.4573 0.3166
C11A C 0.3624(3) 0.3569(4) 0.2630(4)
C12A C 0.0768(2) 0.2508(4) 0.0034(4)
O1D O 0.4478(2) 0.5854(3) 0.0695(3)
U1A U 0.5000 0.5000 0.5000
U1B U 0.0000 0.0000 0.0000
U1C U 1.0000 0.0000 0.5000
Cu1F Cu 0.0000 0.24775(8) -0.2500
Cu1F_2 Cu 1.0000 0.24775(8) 0.7500
O2D O 0.4132(2) 0.5673(3) -0.1817(3)
O4C O 0.5869(2) 0.6459(3) 0.0046(3)
O4G O 0.4131(2) 0.3541(3) -0.0046(3)
O5F O 0.5310(2) 0.1985(3) 0.4129(3)
O5G O 0.4690(2) 0.1985(3) 0.0871(3)
loop_
_geom_bond_atom_site_label_1
_geom_bond_atom_site_label_2
_geom_bond_site_symmetry_1
_geom_bond_site_symmetry_2
U1 O1 1_555 1_555
Cu1 O3 1_555 1_555
O2 U1 1_555 1_555
O3 C11 1_555 1_555
O4 C12 1_555 1_555
O5 C12 1_555 1_555
C1 C2 1_555 1_555
C2 H1 1_555 1_555
H2 C2 1_555 1_555
C3 C2 1_555 1_555
C4 C3 1_555 1_555
H3 C4 1_555 1_555
H4 C4 1_555 1_555
C5 C4 1_555 1_555
H5 C5 1_555 1_555
C6 C1 1_555 1_555
H6 C6 1_555 1_555
H7 C6 1_555 1_555
C7 C1 1_555 1_555
H8 C7 1_555 1_555
H9 C7 1_555 1_555
C8 C7 1_555 1_555
H10 C8 1_555 1_555
C9 C3 1_555 1_555
H11 C9 1_555 1_555
H12 C9 1_555 1_555
C10 C5 1_555 1_555
H13 C10 1_555 1_555
H14 C10 1_555 1_555
C11 O2 1_555 1_555
C12 C3 1_555 1_555
O2A C11A 1_555 1_555
O3A Cu1 1_555 1_555
O4A C12A 1_555 1_555
O5A C12A 1_555 1_555
C1A C2A 1_555 1_555
C2A H1A 1_555 1_555
H2A C2A 1_555 1_555
C3A C2A 1_555 1_555
C4A C3A 1_555 1_555
H3A C4A 1_555 1_555
H4A C4A 1_555 1_555
C5A C4A 1_555 1_555
H5A C5A 1_555 1_555
C6A C1A 1_555 1_555
H6A C6A 1_555 1_555
H7A C6A 1_555 1_555
C7A C1A 1_555 1_555
H8A C7A 1_555 1_555
H9A C7A 1_555 1_555
C8A C7A 1_555 1_555
H10A C8A 1_555 1_555
C9A C3A 1_555 1_555
H11A C9A 1_555 1_555
H12A C9A 1_555 1_555
C10A C5A 1_555 1_555
H13A C10A 1_555 1_555
H14A C10A 1_555 1_555
C11A O3A 1_555 1_555
C12A C3A 1_555 1_555
O1D U1 1_555 1_555
U1A O2A 1_555 1_555
U1B O4A 1_555 1_555
U1C O4 1_555 1_555
Cu1F O5A 1_555 1_555
Cu1F_2 O5 1_555 1_555
O2D U1 1_555 1_555
O4C U1 1_555 1_555
O4G U1 1_555 1_555
O5F Cu1 1_555 1_555
O5G Cu1 1_555 1_555
C1 C11 1_555 1_555
C5 C6 1_555 1_555
C8 C9 1_555 1_555
C8 C10 1_555 1_555
C1A C11A 1_555 1_555
C5A C6A 1_555 1_555
C8A C9A 1_555 1_555
C8A C10A 1_555 1_555

#END
