
#######################################################################
#
#                 Cambridge Crystallographic Data Centre
#                                CCDC 
#
#######################################################################
#
# If this CIF has been generated from an entry in the Cambridge 
# Structural Database, then it will include bibliographic, chemical, 
# crystal, experimental, refinement or atomic coordinate data resulting 
# from the CCDC's data processing and validation procedures.
#
#######################################################################

data_ZOZGUS
_symmetry_cell_setting           monoclinic
_symmetry_space_group_name_H-M   'P 21/n'
_symmetry_Int_Tables_number      14
_space_group_name_Hall           '-P 2yn'
loop_
_symmetry_equiv_pos_site_id
_symmetry_equiv_pos_as_xyz
1 x,y,z
2 1/2-x,1/2+y,1/2-z
3 -x,-y,-z
4 1/2+x,1/2-y,1/2+z
_cell_length_a                   13.123(3)
_cell_length_b                   6.4658(12)
_cell_length_c                   17.959(4)
_cell_angle_alpha                90
_cell_angle_beta                 98.151(3)
_cell_angle_gamma                90
_cell_volume                     1508.44
loop_
_atom_site_label
_atom_site_type_symbol
_atom_site_fract_x
_atom_site_fract_y
_atom_site_fract_z
Ni1 Ni -0.33147(7) 0.80218(14) -0.00766(5)
N1 N -0.2069(5) 0.7901(9) -0.0645(3)
N2 N -0.2140(5) 0.8028(9) 0.0803(3)
O1 O -0.4466(4) 0.7811(9) 0.0602(3)
O2 O -0.0697(6) 0.6479(14) -0.2890(4)
O3 O -0.4344(4) 0.8259(9) -0.1044(3)
O4 O -0.2255(5) 0.7854(12) -0.2904(3)
H1 H -0.2292 0.7692 -0.3360
O5 O -0.0902(5) 0.9284(11) 0.3377(3)
O6 O -0.2513(5) 0.8255(11) 0.3003(3)
H2 H -0.2555 0.8287 0.3454
O7 O -0.2186(4) 1.2766(9) -0.0667(3)
O8 O -0.2109(4) 1.3229(9) 0.0651(3)
O9 O -0.3502(4) 1.1217(8) -0.0024(3)
O10 O -0.3501(4) 1.4837(8) -0.0190(3)
S1 S -0.28159(13) 1.3022(3) -0.00566(9)
C1 C -0.1360(7) 0.7183(14) -0.2572(5)
C2 C -0.1252(6) 0.7358(13) -0.1732(4)
C3 C -0.2115(6) 0.7741(12) -0.1381(4)
H3 H -0.2750 0.7891 -0.1679
C4 C -0.0314(6) 0.7116(13) -0.1291(5)
H4 H 0.0272 0.6840 -0.1511
C5 C -0.0246(6) 0.7288(13) -0.0507(5)
H5 H 0.0381 0.7153 -0.0198
C6 C -0.1148(5) 0.7665(11) -0.0208(4)
C7 C -0.1181(5) 0.7869(11) 0.0614(4)
C8 C -0.0317(6) 0.7943(13) 0.1155(5)
H6 H 0.0338 0.7843 0.1016
C9 C -0.0439(6) 0.8169(13) 0.1913(5)
H7 H 0.0131 0.8180 0.2286
C10 C -0.2241(6) 0.8267(11) 0.1522(4)
H8 H -0.2903 0.8366 0.1648
C11 C -0.1420(6) 0.8376(12) 0.2097(4)
C12 C -0.1596(7) 0.8682(13) 0.2901(4)
Ni1_2 Ni -0.33147(7) 1.80218(14) -0.00766(5)
O10_2 O -0.3501(4) 0.4837(8) -0.0190(3)
loop_
_geom_bond_atom_site_label_1
_geom_bond_atom_site_label_2
_geom_bond_site_symmetry_1
_geom_bond_site_symmetry_2
Ni1 N1 1_555 1_555
N1 C3 1_555 1_555
N2 Ni1 1_555 1_555
O1 Ni1 1_555 1_555
O2 C1 1_555 1_555
O3 Ni1 1_555 1_555
O4 H1 1_555 1_555
O5 C12 1_555 1_555
O6 H2 1_555 1_555
O7 S1 1_555 1_555
O8 S1 1_555 1_555
O9 Ni1 1_555 1_555
O10 S1 1_555 1_555
S1 O9 1_555 1_555
C1 O4 1_555 1_555
C2 C1 1_555 1_555
C3 C2 1_555 1_555
H3 C3 1_555 1_555
C4 C2 1_555 1_555
H4 C4 1_555 1_555
C5 C4 1_555 1_555
H5 C5 1_555 1_555
C6 N1 1_555 1_555
C7 N2 1_555 1_555
C8 C7 1_555 1_555
H6 C8 1_555 1_555
C9 C8 1_555 1_555
H7 C9 1_555 1_555
C10 N2 1_555 1_555
H8 C10 1_555 1_555
C11 C9 1_555 1_555
C12 O6 1_555 1_555
Ni1_2 O10 1_555 1_555
O10_2 Ni1 1_555 1_555
C5 C6 1_555 1_555
C6 C7 1_555 1_555
C10 C11 1_555 1_555
C11 C12 1_555 1_555

#END
