
#######################################################################
#
#                 Cambridge Crystallographic Data Centre
#                                CCDC 
#
#######################################################################
#
# If this CIF has been generated from an entry in the Cambridge 
# Structural Database, then it will include bibliographic, chemical, 
# crystal, experimental, refinement or atomic coordinate data resulting 
# from the CCDC's data processing and validation procedures.
#
#######################################################################

data_ZOZQEM
_symmetry_cell_setting           triclinic
_symmetry_space_group_name_H-M   'P -1'
_symmetry_Int_Tables_number      2
_space_group_name_Hall           '-P 1'
loop_
_symmetry_equiv_pos_site_id
_symmetry_equiv_pos_as_xyz
1 x,y,z
2 -x,-y,-z
_cell_length_a                   9.2272(3)
_cell_length_b                   10.9734(4)
_cell_length_c                   20.8598(6)
_cell_angle_alpha                78.118(3)
_cell_angle_beta                 84.743(3)
_cell_angle_gamma                72.358(4)
_cell_volume                     1968.7
loop_
_atom_site_label
_atom_site_type_symbol
_atom_site_fract_x
_atom_site_fract_y
_atom_site_fract_z
Cd1 Cd 0.33537(4) 0.85482(4) 0.273252(17)
N1 N 0.2717(5) 0.7414(4) 0.3752(2)
N2 N 0.3896(6) 0.9367(5) 0.1673(2)
C1 C 0.1855(6) 0.6069(5) 0.4942(2)
C2 C 0.1381(6) 0.5322(5) 0.5561(2)
C3 C 0.3075(6) 0.5472(5) 0.4555(3)
H1 H 0.3632 0.4607 0.4690
C4 C -0.0079(6) 0.5714(5) 0.5822(3)
H2 H -0.0778 0.6474 0.5622
C5 C 0.3442(6) 0.6177(5) 0.3972(3)
H3 H 0.4247 0.5761 0.3717
C6 C 0.5269(7) 0.9423(6) 0.1494(3)
H4 H 0.5968 0.9273 0.1816
C7 C 0.1559(6) 0.7996(6) 0.4121(3)
H5 H 0.1032 0.8866 0.3976
C8 C 0.4761(7) 0.9875(6) 0.0348(3)
C9 C 0.1114(7) 0.7345(5) 0.4716(3)
H6 H 0.0304 0.7784 0.4960
C10 C 0.2354(6) 0.4208(5) 0.5899(3)
H7 H 0.3358 0.3924 0.5749
C11 C 0.5731(7) 0.9698(6) 0.0841(3)
H8 H 0.6710 0.9763 0.0738
C12 C 0.9112(6) 1.1095(5) 0.2620(3)
C13 C 0.9711(7) 1.3145(6) 0.2349(3)
H9 H 1.0347 1.3634 0.2145
C14 C 1.0059(6) 1.1853(5) 0.2318(3)
H10 H 1.0940 1.1469 0.2092
C15 C 0.9500(6) 0.9732(5) 0.2533(2)
O1 O 0.8488(4) 0.9185(4) 0.2568(2)
O2 O 1.0860(4) 0.9125(3) 0.24023(18)
N3 N 0.0444(5) 0.3882(4) 0.6701(2)
C16 C 0.1857(6) 0.3512(6) 0.6455(3)
H11 H 0.2535 0.2752 0.6667
C17 C -0.0487(6) 0.4964(5) 0.6384(3)
H12 H -0.1479 0.5236 0.6550
C18 C 0.5839(6) 1.1217(5) 0.3795(3)
C19 C 0.4517(6) 1.0837(5) 0.3871(2)
C20 C 0.3539(6) 1.1096(5) 0.4409(3)
H13 H 0.2638 1.0867 0.4454
C21 C 0.5181(7) 1.2017(5) 0.4812(3)
H14 H 0.5420 1.2398 0.5131
C22 C 0.3879(7) 1.1681(6) 0.4875(3)
H15 H 0.3214 1.1843 0.5232
C23 C 0.6157(7) 1.1805(5) 0.4284(3)
H16 H 0.7043 1.2054 0.4247
C24 C 0.4138(6) 1.0082(5) 0.3423(2)
O3 O 0.5181(4) 0.9262(4) 0.31787(19)
O4 O 0.2763(4) 1.0255(4) 0.33200(19)
N4 N 0.6855(5) 1.0948(4) 0.3277(2)
H17 H 0.6900 1.0263 0.3128
C25 C 0.7810(6) 1.1678(5) 0.2974(3)
C26 C 0.7481(7) 1.2998(5) 0.2995(3)
H18 H 0.6614 1.3399 0.3224
C27 C 0.8415(7) 1.3712(6) 0.2685(3)
H19 H 0.8168 1.4592 0.2701
C28 C 0.2940(9) 0.9578(11) 0.1200(3)
H20 H 0.1951 0.9551 0.1317
C29 C 0.3330(9) 0.9836(12) 0.0541(4)
H21 H 0.2607 0.9984 0.0229
Cd2 Cd 1.01873(4) 0.72624(4) 0.232155(19)
O5 O 0.8401(5) 0.6690(4) 0.18326(19)
C30 C 0.9045(7) 0.6845(6) 0.1291(3)
O6 O 1.0166(6) 0.7308(6) 0.1231(2)
N5 N 0.6422(6) 0.5846(5) 0.1313(2)
H22 H 0.6283 0.6385 0.1575
C31 C 0.8483(7) 0.6585(6) 0.0707(3)
C32 C 0.7243(7) 0.6082(6) 0.0736(3)
C33 C 0.3986(7) 0.6008(6) 0.2318(3)
O7 O 0.4837(5) 0.6630(4) 0.2426(2)
O8 O 0.2630(5) 0.6258(5) 0.2515(2)
C34 C 0.4624(6) 0.4875(5) 0.1979(3)
C35 C 0.4048(7) 0.3811(6) 0.2170(3)
H23 H 0.3252 0.3853 0.2480
C36 C 0.4631(9) 0.2712(7) 0.1911(4)
H24 H 0.4233 0.2013 0.2041
C37 C 0.5794(9) 0.2648(7) 0.1463(4)
H25 H 0.6199 0.1895 0.1289
C38 C 0.5804(6) 0.4821(6) 0.1506(3)
C39 C 0.6375(7) 0.3654(6) 0.1264(3)
H26 H 0.7179 0.3577 0.0957
C40 C 0.9230(8) 0.6852(7) 0.0110(3)
H27 H 1.0030 0.7210 0.0091
C41 C 0.6809(8) 0.5879(7) 0.0145(3)
H28 H 0.5968 0.5578 0.0148
C42 C 0.7591(9) 0.6111(8) -0.0429(3)
H29 H 0.7297 0.5942 -0.0809
C43 C 0.8816(9) 0.6597(8) -0.0455(3)
H30 H 0.9353 0.6749 -0.0848
N2A N 0.6104(6) 1.0633(5) -0.1673(2)
C6A C 0.4731(7) 1.0577(6) -0.1494(3)
H4A H 0.4032 1.0727 -0.1816
C8A C 0.5239(7) 1.0125(6) -0.0348(3)
C11A C 0.4269(7) 1.0302(6) -0.0841(3)
H8A H 0.3290 1.0237 -0.0738
C28A C 0.7060(9) 1.0422(11) -0.1200(3)
H20A H 0.8049 1.0449 -0.1317
C29A C 0.6670(9) 1.0164(12) -0.0541(4)
H21A H 0.7393 1.0016 -0.0229
Cd1A Cd 0.66463(4) 0.14518(4) 0.726748(17)
N1A N 0.7283(5) 0.2586(4) 0.6248(2)
C1A C 0.8145(6) 0.3931(5) 0.5058(2)
C2A C 0.8619(6) 0.4678(5) 0.4439(2)
C3A C 0.6925(6) 0.4528(5) 0.5445(3)
H1A H 0.6368 0.5393 0.5310
C4A C 1.0079(6) 0.4286(5) 0.4178(3)
H2A H 1.0778 0.3526 0.4378
C5A C 0.6558(6) 0.3823(5) 0.6028(3)
H3A H 0.5753 0.4239 0.6283
C7A C 0.8441(6) 0.2004(6) 0.5879(3)
H5A H 0.8968 0.1134 0.6024
C9A C 0.8886(7) 0.2655(5) 0.5284(3)
H6A H 0.9696 0.2216 0.5040
C10A C 0.7646(6) 0.5792(5) 0.4101(3)
H7A H 0.6642 0.6076 0.4251
C12A C 0.0888(6) -0.1095(5) 0.7380(3)
C13A C 0.0289(7) -0.3145(6) 0.7651(3)
H9A H -0.0347 -0.3634 0.7855
C14A C -0.0059(6) -0.1853(5) 0.7682(3)
H10A H -0.0940 -0.1469 0.7908
C15A C 0.0500(6) 0.0268(5) 0.7467(2)
O1A O 0.1512(4) 0.0815(4) 0.7432(2)
O2A O -0.0860(4) 0.0875(3) 0.75977(18)
N3A N 0.9556(5) 0.6118(4) 0.3299(2)
C16A C 0.8143(6) 0.6488(6) 0.3545(3)
H11A H 0.7465 0.7248 0.3333
C17A C 1.0487(6) 0.5036(5) 0.3616(3)
H12A H 1.1479 0.4764 0.3450
C18A C 0.4161(6) -0.1217(5) 0.6205(3)
C19A C 0.5483(6) -0.0837(5) 0.6129(2)
C20A C 0.6461(6) -0.1096(5) 0.5591(3)
H13A H 0.7362 -0.0867 0.5546
C21A C 0.4819(7) -0.2017(5) 0.5188(3)
H14A H 0.4580 -0.2398 0.4869
C22A C 0.6121(7) -0.1681(6) 0.5125(3)
H15A H 0.6786 -0.1843 0.4768
C23A C 0.3843(7) -0.1805(5) 0.5716(3)
H16A H 0.2957 -0.2054 0.5753
C24A C 0.5862(6) -0.0082(5) 0.6577(2)
O3A O 0.4819(4) 0.0738(4) 0.68213(19)
O4A O 0.7237(4) -0.0255(4) 0.66800(19)
N4A N 0.3145(5) -0.0948(4) 0.6723(2)
H17A H 0.3100 -0.0263 0.6872
C25A C 0.2190(6) -0.1678(5) 0.7026(3)
C26A C 0.2519(7) -0.2998(5) 0.7005(3)
H18A H 0.3386 -0.3399 0.6776
C27A C 0.1585(7) -0.3712(6) 0.7315(3)
H19A H 0.1832 -0.4592 0.7299
Cd2A Cd -0.01873(4) 0.27376(4) 0.767845(19)
O5A O 0.1599(5) 0.3310(4) 0.81674(19)
C30A C 0.0955(7) 0.3155(6) 0.8709(3)
O6A O -0.0166(6) 0.2692(6) 0.8769(2)
N5A N 0.3578(6) 0.4154(5) 0.8687(2)
H22A H 0.3717 0.3615 0.8425
C31A C 0.1517(7) 0.3415(6) 0.9293(3)
C32A C 0.2757(7) 0.3918(6) 0.9264(3)
C33A C 0.6014(7) 0.3992(6) 0.7682(3)
O7A O 0.5163(5) 0.3370(4) 0.7574(2)
O8A O 0.7370(5) 0.3742(5) 0.7485(2)
C34A C 0.5376(6) 0.5125(5) 0.8021(3)
C35A C 0.5952(7) 0.6189(6) 0.7830(3)
H23A H 0.6748 0.6147 0.7520
C36A C 0.5369(9) 0.7288(7) 0.8089(4)
H24A H 0.5767 0.7987 0.7959
C37A C 0.4206(9) 0.7352(7) 0.8537(4)
H25A H 0.3801 0.8105 0.8711
C38A C 0.4196(6) 0.5179(6) 0.8494(3)
C39A C 0.3625(7) 0.6346(6) 0.8736(3)
H26A H 0.2821 0.6423 0.9043
C40A C 0.0770(8) 0.3148(7) 0.9890(3)
H27A H -0.0030 0.2790 0.9909
C41A C 0.3191(8) 0.4121(7) 0.9855(3)
H28A H 0.4032 0.4422 0.9852
C42A C 0.2409(9) 0.3889(8) 1.0429(3)
H29A H 0.2703 0.4058 1.0809
C43A C 0.1184(9) 0.3403(8) 1.0455(3)
H30A H 0.0647 0.3251 1.0848
Cd1_2 Cd 1.33537(4) 0.85482(4) 0.273252(17)
Cd1A_2 Cd -0.33537(4) 0.14518(4) 0.726748(17)
Cd1A_3 Cd 0.66463(4) 1.14518(4) -0.273252(17)
N2A_2 N 0.6104(6) 0.0633(5) 0.8327(2)
O2_2 O 0.0860(4) 0.9125(3) 0.24023(18)
O2A_2 O 0.9140(4) 0.0875(3) 0.75977(18)
Cd2_2 Cd 0.01873(4) 0.72624(4) 0.232155(19)
Cd2A_2 Cd 0.98127(4) 0.27376(4) 0.767845(19)
O8_2 O 1.2630(5) 0.6258(5) 0.2515(2)
O8A_2 O -0.2630(5) 0.3742(5) 0.7485(2)
O9 O 0.0224(11) 0.1372(11) 0.4023(5)
H31 H -0.0656 0.1447 0.3843
H32 H 0.0890 0.0886 0.3750
O10 O 0.9323(13) 0.0141(14) 0.0661(8)
H33 H 1.018(4) -0.030(6) 0.061(8)
H34 H 0.929(14) 0.080(7) 0.040(6)
loop_
_geom_bond_atom_site_label_1
_geom_bond_atom_site_label_2
_geom_bond_site_symmetry_1
_geom_bond_site_symmetry_2
Cd1 N1 1_555 1_555
N1 C5 1_555 1_555
N2 Cd1 1_555 1_555
C1 C2 1_555 1_555
C2 C4 1_555 1_555
C3 C1 1_555 1_555
H1 C3 1_555 1_555
C4 H2 1_555 1_555
C5 C3 1_555 1_555
H3 C5 1_555 1_555
C6 N2 1_555 1_555
H4 C6 1_555 1_555
C7 N1 1_555 1_555
H5 C7 1_555 1_555
C8 C11 1_555 1_555
C9 C1 1_555 1_555
H6 C9 1_555 1_555
C10 C2 1_555 1_555
H7 C10 1_555 1_555
C11 C6 1_555 1_555
H8 C11 1_555 1_555
C12 C14 1_555 1_555
C13 H9 1_555 1_555
C14 C13 1_555 1_555
H10 C14 1_555 1_555
C15 C12 1_555 1_555
O1 C15 1_555 1_555
O2 C15 1_555 1_555
N3 C16 1_555 1_555
C16 C10 1_555 1_555
H11 C16 1_555 1_555
C17 C4 1_555 1_555
H12 C17 1_555 1_555
C18 C19 1_555 1_555
C19 C20 1_555 1_555
C20 H13 1_555 1_555
C21 H14 1_555 1_555
C22 C20 1_555 1_555
H15 C22 1_555 1_555
C23 C18 1_555 1_555
H16 C23 1_555 1_555
C24 C19 1_555 1_555
O3 Cd1 1_555 1_555
O4 Cd1 1_555 1_555
N4 C18 1_555 1_555
H17 N4 1_555 1_555
C25 C12 1_555 1_555
C26 C25 1_555 1_555
H18 C26 1_555 1_555
C27 C13 1_555 1_555
H19 C27 1_555 1_555
C28 N2 1_555 1_555
H20 C28 1_555 1_555
C29 C8 1_555 1_555
H21 C29 1_555 1_555
Cd2 O1 1_555 1_555
O5 Cd2 1_555 1_555
C30 O5 1_555 1_555
O6 Cd2 1_555 1_555
N5 H22 1_555 1_555
C31 C30 1_555 1_555
C32 N5 1_555 1_555
C33 O7 1_555 1_555
O7 Cd1 1_555 1_555
O8 C33 1_555 1_555
C34 C33 1_555 1_555
C35 C34 1_555 1_555
H23 C35 1_555 1_555
C36 C35 1_555 1_555
H24 C36 1_555 1_555
C37 C36 1_555 1_555
H25 C37 1_555 1_555
C38 N5 1_555 1_555
C39 C37 1_555 1_555
H26 C39 1_555 1_555
C40 C31 1_555 1_555
H27 C40 1_555 1_555
C41 C32 1_555 1_555
H28 C41 1_555 1_555
C42 C41 1_555 1_555
H29 C42 1_555 1_555
C43 C40 1_555 1_555
H30 C43 1_555 1_555
O9 H31 1_555 1_555
H32 O9 1_555 1_555
O10 H33 1_555 1_555
H34 O10 1_555 1_555
N2A C6A 1_555 1_555
C6A H4A 1_555 1_555
C8A C8 1_555 1_555
C11A C6A 1_555 1_555
H8A C11A 1_555 1_555
C28A N2A 1_555 1_555
H20A C28A 1_555 1_555
C29A C8A 1_555 1_555
H21A C29A 1_555 1_555
Cd1A N1A 1_555 1_555
N1A C5A 1_555 1_555
C1A C2A 1_555 1_555
C2A C4A 1_555 1_555
C3A C1A 1_555 1_555
H1A C3A 1_555 1_555
C4A H2A 1_555 1_555
C5A C3A 1_555 1_555
H3A C5A 1_555 1_555
C7A N1A 1_555 1_555
H5A C7A 1_555 1_555
C9A C1A 1_555 1_555
H6A C9A 1_555 1_555
C10A C2A 1_555 1_555
H7A C10A 1_555 1_555
C12A C14A 1_555 1_555
C13A H9A 1_555 1_555
C14A C13A 1_555 1_555
H10A C14A 1_555 1_555
C15A C12A 1_555 1_555
O1A C15A 1_555 1_555
O2A C15A 1_555 1_555
N3A Cd2 1_555 1_555
C16A C10A 1_555 1_555
H11A C16A 1_555 1_555
C17A C4A 1_555 1_555
H12A C17A 1_555 1_555
C18A C19A 1_555 1_555
C19A C20A 1_555 1_555
C20A H13A 1_555 1_555
C21A H14A 1_555 1_555
C22A C20A 1_555 1_555
H15A C22A 1_555 1_555
C23A C18A 1_555 1_555
H16A C23A 1_555 1_555
C24A C19A 1_555 1_555
O3A Cd1A 1_555 1_555
O4A Cd1A 1_555 1_555
N4A C18A 1_555 1_555
H17A N4A 1_555 1_555
C25A C12A 1_555 1_555
C26A C25A 1_555 1_555
H18A C26A 1_555 1_555
C27A C13A 1_555 1_555
H19A C27A 1_555 1_555
Cd2A N3 1_555 1_555
O5A Cd2A 1_555 1_555
C30A O5A 1_555 1_555
O6A Cd2A 1_555 1_555
N5A H22A 1_555 1_555
C31A C30A 1_555 1_555
C32A N5A 1_555 1_555
C33A O7A 1_555 1_555
O7A Cd1A 1_555 1_555
O8A C33A 1_555 1_555
C34A C33A 1_555 1_555
C35A C34A 1_555 1_555
H23A C35A 1_555 1_555
C36A C35A 1_555 1_555
H24A C36A 1_555 1_555
C37A C36A 1_555 1_555
H25A C37A 1_555 1_555
C38A N5A 1_555 1_555
C39A C37A 1_555 1_555
H26A C39A 1_555 1_555
C40A C31A 1_555 1_555
H27A C40A 1_555 1_555
C41A C32A 1_555 1_555
H28A C41A 1_555 1_555
C42A C41A 1_555 1_555
H29A C42A 1_555 1_555
C43A C40A 1_555 1_555
H30A C43A 1_555 1_555
Cd1_2 O2 1_555 1_555
Cd1A_2 O2A 1_555 1_555
Cd1A_3 N2A 1_555 1_555
N2A_2 Cd1A 1_555 1_555
O2_2 Cd1 1_555 1_555
O2A_2 Cd1A 1_555 1_555
Cd2_2 O8 1_555 1_555
Cd2A_2 O8A 1_555 1_555
O8_2 Cd2 1_555 1_555
O8A_2 Cd2A 1_555 1_555
C7 C9 1_555 1_555
O2 Cd2 1_555 1_555
N3 C17 1_555 1_555
C21 C22 1_555 1_555
C21 C23 1_555 1_555
C24 O3 1_555 1_555
C24 O4 1_555 1_555
N4 C25 1_555 1_555
C26 C27 1_555 1_555
C28 C29 1_555 1_555
C30 O6 1_555 1_555
C31 C32 1_555 1_555
C34 C38 1_555 1_555
C38 C39 1_555 1_555
C42 C43 1_555 1_555
C8A C11A 1_555 1_555
C28A C29A 1_555 1_555
C7A C9A 1_555 1_555
O1A Cd2A 1_555 1_555
O2A Cd2A 1_555 1_555
N3A C16A 1_555 1_555
N3A C17A 1_555 1_555
C21A C22A 1_555 1_555
C21A C23A 1_555 1_555
C24A O3A 1_555 1_555
C24A O4A 1_555 1_555
N4A C25A 1_555 1_555
C26A C27A 1_555 1_555
C30A O6A 1_555 1_555
C31A C32A 1_555 1_555
C34A C38A 1_555 1_555
C38A C39A 1_555 1_555
C42A C43A 1_555 1_555
O2_2 Cd2_2 1_555 1_555
O2A_2 Cd2A_2 1_555 1_555

#END
