
#######################################################################
#
#                 Cambridge Crystallographic Data Centre
#                                CCDC 
#
#######################################################################
#
# If this CIF has been generated from an entry in the Cambridge 
# Structural Database, then it will include bibliographic, chemical, 
# crystal, experimental, refinement or atomic coordinate data resulting 
# from the CCDC's data processing and validation procedures.
#
#######################################################################

data_ZOZSEO
_symmetry_cell_setting           orthorhombic
_symmetry_space_group_name_H-M   'P c c a'
_symmetry_Int_Tables_number      54
_space_group_name_Hall           '-P 2a 2ac'
loop_
_symmetry_equiv_pos_site_id
_symmetry_equiv_pos_as_xyz
1 x,y,z
2 1/2-x,-y,z
3 1/2+x,-y,1/2-z
4 -x,y,1/2-z
5 -x,-y,-z
6 1/2+x,y,-z
7 1/2-x,y,1/2+z
8 x,-y,1/2+z
_cell_length_a                   21.156(11)
_cell_length_b                   8.726(5)
_cell_length_c                   15.847(9)
_cell_angle_alpha                90
_cell_angle_beta                 90
_cell_angle_gamma                90
_cell_volume                     2925.47
loop_
_atom_site_label
_atom_site_type_symbol
_atom_site_fract_x
_atom_site_fract_y
_atom_site_fract_z
Ni1 Ni 0.5000 0.73025(5) 0.2500
O1 O 0.98353(9) -0.2245(2) -0.12413(12)
O2 O 0.92914(8) -0.0963(2) -0.21937(11)
C1 C 0.94139(11) -0.1259(3) -0.14248(15)
N1 N 0.57052(10) 0.5716(3) 0.23478(14)
N2 N 0.74672(11) 0.2437(2) 0.10909(14)
N3 N 0.76565(12) 0.2290(3) 0.24986(13)
C2 C 0.90602(11) -0.0476(3) -0.07358(15)
C3 C 0.92207(12) -0.0740(3) 0.01044(16)
H1 H 0.9555 -0.1390 0.0234
C4 C 0.83765(11) 0.0914(3) 0.05553(16)
C5 C 0.79899(11) 0.1623(3) 0.12195(16)
C6 C 0.72822(12) 0.2813(3) 0.18875(17)
C7 C 0.85578(15) 0.0484(4) -0.09256(18)
H2 H 0.8451 0.0670 -0.1486
C8 C 0.67293(12) 0.3770(3) 0.20521(17)
N4 N 0.81079(10) 0.1533(3) 0.20501(14)
H3 H 0.8425 0.1061 0.2269
C9 C 0.88838(12) -0.0039(3) 0.07468(16)
H4 H 0.8997 -0.0206 0.1306
C10 C 0.82135(15) 0.1169(4) -0.02820(19)
H5 H 0.7873 0.1800 -0.0412
C11 C 0.65720(14) 0.4220(4) 0.28644(18)
H6 H 0.6807 0.3883 0.3324
C12 C 0.60579(14) 0.5182(3) 0.29792(18)
H7 H 0.5954 0.5471 0.3527
C13 C 0.63562(14) 0.4300(4) 0.13947(19)
H8 H 0.6443 0.4008 0.0842
C14 C 0.58556(14) 0.5263(4) 0.15647(18)
H9 H 0.5611 0.5613 0.1116
O1C O 0.01647(9) -0.2245(2) 0.62413(12)
O2C O 0.07086(8) -0.0963(2) 0.71937(11)
C1C C 0.05861(11) -0.1259(3) 0.64248(15)
N1C N 0.42948(10) 0.5716(3) 0.26522(14)
N2C N 0.25328(11) 0.2437(2) 0.39091(14)
N3C N 0.23435(12) 0.2290(3) 0.25014(13)
C2C C 0.09398(11) -0.0476(3) 0.57358(15)
C3C C 0.07793(12) -0.0740(3) 0.48956(16)
H1C H 0.0445 -0.1390 0.4766
C4C C 0.16235(11) 0.0914(3) 0.44447(16)
C5C C 0.20101(11) 0.1623(3) 0.37805(16)
C6C C 0.27178(12) 0.2813(3) 0.31125(17)
C7C C 0.14422(15) 0.0484(4) 0.59256(18)
H2C H 0.1549 0.0670 0.6486
C8C C 0.32707(12) 0.3770(3) 0.29479(17)
N4C N 0.18921(10) 0.1533(3) 0.29499(14)
H3C H 0.1575 0.1061 0.2731
C9C C 0.11162(12) -0.0039(3) 0.42532(16)
H4C H 0.1003 -0.0206 0.3694
C10C C 0.17865(15) 0.1169(4) 0.52820(19)
H5C H 0.2127 0.1800 0.5412
C11C C 0.34280(14) 0.4220(4) 0.21356(18)
H6C H 0.3193 0.3883 0.1676
C12C C 0.39421(14) 0.5182(3) 0.20208(18)
H7C H 0.4046 0.5471 0.1473
C13C C 0.36438(14) 0.4300(4) 0.36053(19)
H8C H 0.3557 0.4008 0.4158
C14C C 0.41444(14) 0.5263(4) 0.34353(18)
H9C H 0.4389 0.5613 0.3884
Ni1E Ni 0.0000 -0.26975(5) 0.7500
Ni1E_2 Ni 1.0000 -0.26975(5) -0.2500
O1E O 0.48353(9) 0.7755(2) 0.12413(12)
O1F O 0.51647(9) 0.7755(2) 0.37587(12)
O2E O 0.42914(8) 0.9037(2) 0.21937(11)
O2F O 0.57086(8) 0.9037(2) 0.28063(11)
O3 O 0.7500 0.5000 -0.0289(6)
loop_
_geom_bond_atom_site_label_1
_geom_bond_atom_site_label_2
_geom_bond_site_symmetry_1
_geom_bond_site_symmetry_2
Ni1 N1 1_555 1_555
O1 C1 1_555 1_555
O2 C1 1_555 1_555
C1 C2 1_555 1_555
N1 C12 1_555 1_555
N2 C5 1_555 1_555
N3 C6 1_555 1_555
C2 C3 1_555 1_555
C3 H1 1_555 1_555
C4 C5 1_555 1_555
C5 N4 1_555 1_555
C6 N2 1_555 1_555
C7 C2 1_555 1_555
H2 C7 1_555 1_555
C8 C6 1_555 1_555
N4 N3 1_555 1_555
H3 N4 1_555 1_555
C9 C3 1_555 1_555
H4 C9 1_555 1_555
C10 C4 1_555 1_555
H5 C10 1_555 1_555
C11 C8 1_555 1_555
H6 C11 1_555 1_555
C12 C11 1_555 1_555
H7 C12 1_555 1_555
C13 C8 1_555 1_555
H8 C13 1_555 1_555
C14 N1 1_555 1_555
H9 C14 1_555 1_555
O1C C1C 1_555 1_555
O2C C1C 1_555 1_555
C1C C2C 1_555 1_555
N1C Ni1 1_555 1_555
N2C C5C 1_555 1_555
N3C C6C 1_555 1_555
C2C C3C 1_555 1_555
C3C H1C 1_555 1_555
C4C C5C 1_555 1_555
C5C N4C 1_555 1_555
C6C N2C 1_555 1_555
C7C C2C 1_555 1_555
H2C C7C 1_555 1_555
C8C C6C 1_555 1_555
N4C N3C 1_555 1_555
H3C N4C 1_555 1_555
C9C C3C 1_555 1_555
H4C C9C 1_555 1_555
C10C C4C 1_555 1_555
H5C C10C 1_555 1_555
C11C C8C 1_555 1_555
H6C C11C 1_555 1_555
C12C N1C 1_555 1_555
H7C C12C 1_555 1_555
C13C C8C 1_555 1_555
H8C C13C 1_555 1_555
C14C N1C 1_555 1_555
H9C C14C 1_555 1_555
Ni1E O1C 1_555 1_555
Ni1E_2 O1 1_555 1_555
O1E Ni1 1_555 1_555
O1F Ni1 1_555 1_555
O2E Ni1 1_555 1_555
O2F Ni1 1_555 1_555
O2 Ni1E_2 1_555 1_555
C4 C9 1_555 1_555
C7 C10 1_555 1_555
C13 C14 1_555 1_555
O2C Ni1E 1_555 1_555
C4C C9C 1_555 1_555
C7C C10C 1_555 1_555
C11C C12C 1_555 1_555
C13C C14C 1_555 1_555

#END
