
#######################################################################
#
#                 Cambridge Crystallographic Data Centre
#                                CCDC 
#
#######################################################################
#
# If this CIF has been generated from an entry in the Cambridge 
# Structural Database, then it will include bibliographic, chemical, 
# crystal, experimental, refinement or atomic coordinate data resulting 
# from the CCDC's data processing and validation procedures.
#
#######################################################################

data_ZOZSAK
_symmetry_cell_setting           monoclinic
_symmetry_space_group_name_H-M   'P 21/c'
_symmetry_Int_Tables_number      14
_space_group_name_Hall           '-P 2ybc'
loop_
_symmetry_equiv_pos_site_id
_symmetry_equiv_pos_as_xyz
1 x,y,z
2 -x,1/2+y,1/2-z
3 -x,-y,-z
4 x,1/2-y,1/2+z
_cell_length_a                   9.977(5)
_cell_length_b                   23.146(12)
_cell_length_c                   11.944(6)
_cell_angle_alpha                90
_cell_angle_beta                 90.182(10)
_cell_angle_gamma                90
_cell_volume                     2758.19
loop_
_atom_site_label
_atom_site_type_symbol
_atom_site_fract_x
_atom_site_fract_y
_atom_site_fract_z
Cu1 Cu 0.18876(5) 0.37358(2) 0.54888(4)
O1 O 1.0539(3) 0.36160(13) -0.3368(3)
O2 O 1.0547(3) 0.39066(12) 1.4340(3)
N1 N 0.3253(4) 0.40572(17) 0.6553(3)
N2 N 0.6438(4) 0.29276(15) 0.1243(3)
N3 N 0.3192(4) 0.34011(16) 0.4407(3)
O3 O 1.1428(3) 0.27383(14) -0.3410(3)
C1 C 0.9709(4) 0.29349(18) -0.2063(3)
N4 N 0.6597(4) 0.45759(15) 0.9651(3)
N5 N 0.7485(4) 0.54343(16) 0.9436(3)
H1 H 0.7974 0.5733 0.9564
O4 O 1.1659(3) 0.47345(13) 1.4258(3)
N6 N 0.6015(4) 0.20482(17) 0.1974(3)
C2 C 0.9867(4) 0.45705(17) 1.2944(3)
C3 C 1.0758(4) 0.44103(18) 1.3923(4)
N7 N 0.6876(4) 0.20043(15) 0.1106(3)
H2 H 0.7211 0.1686 0.0863
C4 C 0.8027(4) 0.26608(18) -0.0268(3)
C5 C 0.5789(5) 0.26061(19) 0.2022(4)
C6 C 0.8290(4) 0.48477(18) 1.1075(3)
C7 C 1.0627(4) 0.30904(19) -0.3012(3)
C8 C 0.8815(5) 0.33402(19) -0.1634(4)
H3 H 0.8779 0.3706 -0.1953
C9 C 0.5114(4) 0.45886(19) 0.7983(4)
C10 C 0.7461(4) 0.49536(18) 1.0076(3)
C11 C 0.3547(5) 0.3666(2) 0.3457(4)
H4 H 0.3203 0.4032 0.3314
N8 N 0.6619(4) 0.53761(17) 0.8556(3)
C12 C 0.6109(5) 0.48555(19) 0.8725(4)
C13 C 0.8856(5) 0.4203(2) 1.2587(4)
H5 H 0.8703 0.3861 1.2974
C14 C 0.4478(5) 0.4086(2) 0.8273(4)
H6 H 0.4659 0.3914 0.8960
C15 C 0.3563(5) 0.3833(2) 0.7544(4)
H7 H 0.3150 0.3491 0.7759
C16 C 0.8920(5) 0.22570(19) -0.0692(4)
H8 H 0.8958 0.1890 -0.0377
C17 C 0.9761(5) 0.23935(19) -0.1584(4)
H9 H 1.0358 0.2119 -0.1856
C18 C 0.7136(4) 0.25351(18) 0.0672(4)
C19 C 0.4901(5) 0.28717(19) 0.2860(4)
C20 C 0.4395(5) 0.3425(2) 0.2679(4)
H10 H 0.4629 0.3629 0.2038
C21 C 1.0054(5) 0.50855(19) 1.2381(4)
H11 H 1.0702 0.5344 1.2633
C22 C 0.4527(5) 0.2587(2) 0.3833(4)
H12 H 0.4840 0.2216 0.3984
C23 C 0.7977(4) 0.32118(18) -0.0744(4)
H13 H 0.7390 0.3489 -0.0467
C24 C 0.3851(6) 0.4551(3) 0.6284(5)
H14 H 0.3629 0.4722 0.5603
C25 C 0.4787(6) 0.4826(3) 0.6959(4)
H15 H 0.5190 0.5167 0.6724
C26 C 0.9285(5) 0.52240(19) 1.1445(4)
H16 H 0.9437 0.5569 1.1065
C27 C 0.8071(5) 0.4336(2) 1.1666(4)
H17 H 0.7396 0.4084 1.1440
C28 C 0.3675(5) 0.2864(2) 0.4577(4)
H18 H 0.3426 0.2670 0.5225
Cu1_2 Cu 1.18876(5) 0.37358(2) -0.45112(4)
Cu1_3 Cu 1.18876(5) 0.37358(2) 1.54888(4)
O1_2 O 0.0539(3) 0.36160(13) 0.6632(3)
O2_2 O 0.0547(3) 0.39066(12) 0.4340(3)
O3_2 O 0.1428(3) 0.27383(14) 0.6590(3)
O4_2 O 0.1659(3) 0.47345(13) 0.4258(3)
O5 O 0.7915(5) 0.09251(17) 0.0580(5)
H19 H 0.801(8) 0.0575(15) 0.079(7)
H20 H 0.722(6) 0.093(4) 0.014(7)
O6 O 0.8712(6) 0.6571(2) 0.9462(6)
H21 H 0.867(8) 0.682(3) 0.894(5)
H22 H 0.804(7) 0.659(4) 0.988(7)
loop_
_geom_bond_atom_site_label_1
_geom_bond_atom_site_label_2
_geom_bond_site_symmetry_1
_geom_bond_site_symmetry_2
Cu1 N1 1_555 1_555
O1 C7 1_555 1_555
O2 C3 1_555 1_555
N1 C15 1_555 1_555
N2 C5 1_555 1_555
N3 Cu1 1_555 1_555
O3 C7 1_555 1_555
C1 C7 1_555 1_555
N4 C10 1_555 1_555
N5 H1 1_555 1_555
O4 C3 1_555 1_555
N6 N7 1_555 1_555
C2 C3 1_555 1_555
N7 H2 1_555 1_555
C4 C16 1_555 1_555
C5 N6 1_555 1_555
C6 C10 1_555 1_555
C8 C1 1_555 1_555
H3 C8 1_555 1_555
C9 C12 1_555 1_555
C10 N5 1_555 1_555
C11 N3 1_555 1_555
H4 C11 1_555 1_555
N8 N5 1_555 1_555
C12 N4 1_555 1_555
C13 C2 1_555 1_555
H5 C13 1_555 1_555
C14 C9 1_555 1_555
H6 C14 1_555 1_555
C15 C14 1_555 1_555
H7 C15 1_555 1_555
C16 H8 1_555 1_555
C17 C1 1_555 1_555
H9 C17 1_555 1_555
C18 N2 1_555 1_555
C19 C5 1_555 1_555
C20 C11 1_555 1_555
H10 C20 1_555 1_555
C21 C2 1_555 1_555
H11 C21 1_555 1_555
C22 C19 1_555 1_555
H12 C22 1_555 1_555
C23 C4 1_555 1_555
H13 C23 1_555 1_555
C24 N1 1_555 1_555
H14 C24 1_555 1_555
C25 C9 1_555 1_555
H15 C25 1_555 1_555
C26 C6 1_555 1_555
H16 C26 1_555 1_555
C27 C6 1_555 1_555
H17 C27 1_555 1_555
C28 N3 1_555 1_555
H18 C28 1_555 1_555
O5 H19 1_555 1_555
H20 O5 1_555 1_555
O6 H21 1_555 1_555
H22 O6 1_555 1_555
Cu1_2 O1 1_555 1_555
Cu1_3 O2 1_555 1_555
O1_2 Cu1 1_555 1_555
O2_2 Cu1 1_555 1_555
O3_2 Cu1 1_555 1_555
O4_2 Cu1 1_555 1_555
O3 Cu1_2 1_555 1_555
O4 Cu1_3 1_555 1_555
N7 C18 1_555 1_555
C4 C18 1_555 1_555
C8 C23 1_555 1_555
N8 C12 1_555 1_555
C13 C27 1_555 1_555
C16 C17 1_555 1_555
C19 C20 1_555 1_555
C21 C26 1_555 1_555
C22 C28 1_555 1_555
C24 C25 1_555 1_555

#END
