
#######################################################################
#
#                 Cambridge Crystallographic Data Centre
#                                CCDC 
#
#######################################################################
#
# If this CIF has been generated from an entry in the Cambridge 
# Structural Database, then it will include bibliographic, chemical, 
# crystal, experimental, refinement or atomic coordinate data resulting 
# from the CCDC's data processing and validation procedures.
#
#######################################################################

data_ZOZTIT
_symmetry_cell_setting           triclinic
_symmetry_space_group_name_H-M   'P -1'
_symmetry_Int_Tables_number      2
_space_group_name_Hall           '-P 1'
loop_
_symmetry_equiv_pos_site_id
_symmetry_equiv_pos_as_xyz
1 x,y,z
2 -x,-y,-z
_cell_length_a                   10.436(4)
_cell_length_b                   13.084(6)
_cell_length_c                   13.348(5)
_cell_angle_alpha                103.658(7)
_cell_angle_beta                 92.736(6)
_cell_angle_gamma                91.166(7)
_cell_volume                     1768.1
loop_
_atom_site_label
_atom_site_type_symbol
_atom_site_fract_x
_atom_site_fract_y
_atom_site_fract_z
Ag1 Ag 0.71870(2) 0.42092(2) 0.33728(2)
Ag2 Ag 0.64382(3) 0.58128(2) 0.17721(2)
O1 O 0.6602(4) 0.7577(3) 0.1280(3)
O2 O 0.6418(3) 0.9256(3) 0.1799(3)
O3 O 0.5227(3) 0.8216(3) 0.2390(3)
N1 N 0.6602(3) 0.3075(2) 0.1726(2)
N2 N 0.8219(3) 0.4836(2) 0.1307(2)
N3 N 0.9420(3) 0.5326(2) 0.1351(2)
N4 N 0.9645(3) 0.3611(2) 0.0872(2)
N5 N 1.4302(3) 0.5405(2) 0.1318(2)
N6 N 1.0352(4) 0.2173(3) 0.1468(3)
N7 N 0.6999(3) 0.6921(2) 0.3499(2)
N8 N 0.5388(3) 0.5123(2) 0.3746(2)
N9 N 0.4203(3) 0.4622(2) 0.3631(2)
N10 N 0.3993(3) 0.6311(2) 0.4328(2)
N11 N -0.0668(3) 0.4584(3) 0.3656(2)
N12 N 0.2981(3) 0.7308(2) 0.5763(2)
N13 N 0.6092(3) 0.8347(3) 0.1824(3)
C1 C 0.5634(4) 0.2364(3) 0.1641(3)
H1 H 0.5119 0.2408 0.2198
C2 C 0.5367(4) 0.1575(3) 0.0768(4)
H2 H 0.4676 0.1106 0.0737
C3 C 0.6126(4) 0.1486(3) -0.0058(3)
H3 H 0.5969 0.0949 -0.0649
C4 C 0.7132(4) 0.2209(3) 0.0004(3)
H4 H 0.7658 0.2172 -0.0546
C5 C 0.7338(3) 0.2994(3) 0.0910(3)
C6 C 0.8368(3) 0.3811(3) 0.1029(2)
C7 C 1.0263(3) 0.4593(3) 0.1104(3)
C8 C 1.1662(3) 0.4824(3) 0.1129(3)
C9 C 1.2083(3) 0.5862(3) 0.1561(3)
H5 H 1.1497 0.6379 0.1799
C10 C 1.3398(3) 0.6111(3) 0.1631(3)
H6 H 1.3664 0.6807 0.1910
C11 C 1.3870(3) 0.4419(3) 0.0875(3)
H7 H 1.4470 0.3921 0.0621
C12 C 1.2588(3) 0.4099(3) 0.0774(3)
H8 H 1.2348 0.3402 0.0470
C13 C 1.0192(3) 0.2581(3) 0.0659(3)
C14 C 1.0500(4) 0.2124(3) -0.0334(4)
H9 H 1.0315 0.2441 -0.0876
C15 C 1.1100(5) 0.1167(4) -0.0486(6)
H10 H 1.1344 0.0825 -0.1138
C16 C 1.1324(5) 0.0737(4) 0.0338(7)
H11 H 1.1740 0.0103 0.0257
C17 C 1.0936(6) 0.1243(4) 0.1281(6)
H12 H 1.1082 0.0927 0.1830
C18 C 0.7976(4) 0.7636(3) 0.3614(4)
H13 H 0.8436 0.7661 0.3040
C19 C 0.8333(4) 0.8335(3) 0.4543(4)
H14 H 0.9046 0.8786 0.4598
C20 C 0.7609(4) 0.8350(3) 0.5388(4)
H15 H 0.7815 0.8820 0.6018
C21 C 0.6566(4) 0.7646(3) 0.5273(3)
H16 H 0.6046 0.7654 0.5821
C22 C 0.6309(3) 0.6937(3) 0.4336(3)
C23 C 0.5255(3) 0.6134(3) 0.4153(3)
C24 C 0.3360(3) 0.5351(3) 0.3974(3)
C25 C 0.2003(3) 0.5119(3) 0.3898(2)
C26 C 0.1531(3) 0.4097(3) 0.3727(3)
H17 H 0.2103 0.3554 0.3686
C27 C 0.0220(4) 0.3859(3) 0.3616(3)
H18 H -0.0052 0.3159 0.3509
C28 C -0.0232(4) 0.5577(3) 0.3797(3)
H19 H -0.0829 0.6097 0.3813
C29 C 0.1060(3) 0.5880(3) 0.3922(3)
H20 H 0.1303 0.6586 0.4021
C30 C 0.3482(3) 0.7310(3) 0.4859(3)
C31 C 0.3573(4) 0.8161(3) 0.4425(3)
H21 H 0.3935 0.8111 0.3793
C32 C 0.3096(5) 0.9097(4) 0.4979(4)
H22 H 0.3143 0.9701 0.4727
C33 C 0.2549(5) 0.9125(4) 0.5914(4)
H23 H 0.2221 0.9743 0.6297
C34 C 0.2504(4) 0.8220(3) 0.6257(3)
H24 H 0.2117 0.8240 0.6874
Ag1_2 Ag -0.28130(2) 0.42092(2) 0.33728(2)
Ag1A Ag 0.28130(2) 0.57908(2) 0.66272(2)
Ag2_2 Ag 1.64382(3) 0.58128(2) 0.17721(2)
N5_2 N 0.4302(3) 0.5405(2) 0.1318(2)
N11_2 N 0.9332(3) 0.4584(3) 0.3656(2)
N12A N 0.7019(3) 0.2692(2) 0.4237(2)
O4 O 0.0752(4) 0.8018(3) 0.2858(3)
O5 O 0.0545(4) 0.9668(3) 0.3279(4)
O6 O 0.2025(4) 0.9019(4) 0.2309(3)
N14 N 0.1104(4) 0.8907(3) 0.2814(3)
O7 O 0.4135(4) 0.0524(3) 0.2651(3)
H25 H 0.3482 0.0106 0.2539
H26 H 0.4860 0.0242 0.2663
loop_
_geom_bond_atom_site_label_1
_geom_bond_atom_site_label_2
_geom_bond_site_symmetry_1
_geom_bond_site_symmetry_2
Ag1 N1 1_555 1_555
Ag2 O1 1_555 1_555
O1 N13 1_555 1_555
O2 N13 1_555 1_555
O3 N13 1_555 1_555
N1 C1 1_555 1_555
N2 Ag2 1_555 1_555
N3 N2 1_555 1_555
N4 C6 1_555 1_555
N5 C10 1_555 1_555
N6 C13 1_555 1_555
N7 Ag2 1_555 1_555
N8 Ag1 1_555 1_555
N9 N8 1_555 1_555
N10 C23 1_555 1_555
N11 C27 1_555 1_555
N12 C30 1_555 1_555
C1 H1 1_555 1_555
C2 C1 1_555 1_555
H2 C2 1_555 1_555
C3 C2 1_555 1_555
H3 C3 1_555 1_555
C4 C3 1_555 1_555
H4 C4 1_555 1_555
C5 N1 1_555 1_555
C6 N2 1_555 1_555
C7 N3 1_555 1_555
C8 C7 1_555 1_555
C9 C8 1_555 1_555
H5 C9 1_555 1_555
C10 C9 1_555 1_555
H6 C10 1_555 1_555
C11 N5 1_555 1_555
H7 C11 1_555 1_555
C12 C8 1_555 1_555
H8 C12 1_555 1_555
C13 N4 1_555 1_555
C14 C13 1_555 1_555
H9 C14 1_555 1_555
C15 C14 1_555 1_555
H10 C15 1_555 1_555
C16 C15 1_555 1_555
H11 C16 1_555 1_555
C17 N6 1_555 1_555
H12 C17 1_555 1_555
C18 N7 1_555 1_555
H13 C18 1_555 1_555
C19 C18 1_555 1_555
H14 C19 1_555 1_555
C20 C19 1_555 1_555
H15 C20 1_555 1_555
C21 C20 1_555 1_555
H16 C21 1_555 1_555
C22 N7 1_555 1_555
C23 N8 1_555 1_555
C24 N9 1_555 1_555
C25 C24 1_555 1_555
C26 C25 1_555 1_555
H17 C26 1_555 1_555
C27 C26 1_555 1_555
H18 C27 1_555 1_555
C28 N11 1_555 1_555
H19 C28 1_555 1_555
C29 C25 1_555 1_555
H20 C29 1_555 1_555
C30 N10 1_555 1_555
C31 C30 1_555 1_555
H21 C31 1_555 1_555
C32 C31 1_555 1_555
H22 C32 1_555 1_555
C33 C32 1_555 1_555
H23 C33 1_555 1_555
C34 N12 1_555 1_555
H24 C34 1_555 1_555
O4 N14 1_555 1_555
O5 N14 1_555 1_555
O6 N14 1_555 1_555
O7 H25 1_555 1_555
H26 O7 1_555 1_555
Ag1_2 N11 1_555 1_555
Ag1A N12 1_555 1_555
Ag2_2 N5 1_555 1_555
N5_2 Ag2 1_555 1_555
N11_2 Ag1 1_555 1_555
N12A Ag1 1_555 1_555
N4 C7 1_555 1_555
N10 C24 1_555 1_555
C4 C5 1_555 1_555
C5 C6 1_555 1_555
C11 C12 1_555 1_555
C16 C17 1_555 1_555
C21 C22 1_555 1_555
C22 C23 1_555 1_555
C28 C29 1_555 1_555
C33 C34 1_555 1_555

#END
