
#######################################################################
#
#                 Cambridge Crystallographic Data Centre
#                                CCDC 
#
#######################################################################
#
# If this CIF has been generated from an entry in the Cambridge 
# Structural Database, then it will include bibliographic, chemical, 
# crystal, experimental, refinement or atomic coordinate data resulting 
# from the CCDC's data processing and validation procedures.
#
#######################################################################

data_ZOZTOZ
_symmetry_cell_setting           triclinic
_symmetry_space_group_name_H-M   'P -1'
_symmetry_Int_Tables_number      2
_space_group_name_Hall           '-P 1'
loop_
_symmetry_equiv_pos_site_id
_symmetry_equiv_pos_as_xyz
1 x,y,z
2 -x,-y,-z
_cell_length_a                   10.3414(17)
_cell_length_b                   10.6765(18)
_cell_length_c                   12.985(2)
_cell_angle_alpha                97.749(3)
_cell_angle_beta                 106.757(3)
_cell_angle_gamma                93.601(3)
_cell_volume                     1352.42
loop_
_atom_site_label
_atom_site_type_symbol
_atom_site_fract_x
_atom_site_fract_y
_atom_site_fract_z
Ag1 Ag 0.69084(5) 0.53758(6) 0.06620(4)
Ag2 Ag 0.57537(6) 0.57667(6) 0.45576(5)
O1 O 0.5027(5) 0.4254(5) 0.3082(4)
O2 O 0.3352(5) 0.3544(6) 0.3648(4)
O3 O 0.7353(6) 0.4479(6) 0.2389(5)
H1 H 0.7503 0.3704 0.2300
H2 H 0.6680 0.4644 0.2620
N1 N 0.7136(5) 0.7341(5) 0.4090(4)
N2 N 0.5384(4) 0.6433(5) 0.1326(4)
N3 N 0.4010(5) 0.6124(5) 0.0855(4)
N4 N 0.4349(4) 0.7204(5) 0.2483(4)
N5 N -0.0843(5) 0.6058(5) 0.1016(4)
N6 N 0.4066(5) 0.7418(6) 0.4221(4)
C1 C 0.7914(6) 0.8151(6) 0.2718(6)
H3 H 0.7738 0.8289 0.2001
C2 C 0.9174(7) 0.8529(7) 0.3476(7)
H4 H 0.9865 0.8929 0.3272
C3 C 0.9403(6) 0.8312(7) 0.4525(6)
H5 H 1.0247 0.8559 0.5040
C4 C 0.8361(6) 0.7721(6) 0.4804(6)
H6 H 0.8515 0.7581 0.5519
C5 C 0.6932(5) 0.7563(6) 0.3070(5)
C6 C 0.5579(5) 0.7080(6) 0.2295(5)
C7 C 0.3413(5) 0.6598(6) 0.1561(5)
C8 C 0.1934(5) 0.6448(6) 0.1394(5)
C9 C 0.1411(6) 0.5913(7) 0.2125(5)
H7 H 0.1982 0.5673 0.2747
C10 C 0.0020(6) 0.5747(7) 0.1902(5)
H8 H -0.0335 0.5401 0.2395
C11 C -0.0332(6) 0.6592(7) 0.0337(6)
H9 H -0.0928 0.6844 -0.0266
C12 C 0.1051(6) 0.6794(6) 0.0483(5)
H10 H 0.1376 0.7154 -0.0020
C13 C 0.4025(5) 0.7972(6) 0.3368(5)
C14 C 0.3623(7) 0.9135(7) 0.3234(6)
H11 H 0.3622 0.9477 0.2612
C15 C 0.3208(8) 0.9804(8) 0.4064(7)
H12 H 0.2928 1.0610 0.4010
C16 C 0.3220(7) 0.9256(8) 0.4949(6)
H13 H 0.2939 0.9679 0.5508
C17 C 0.3648(7) 0.8082(8) 0.5011(6)
H14 H 0.3653 0.7717 0.5624
C18 C 0.3990(7) 0.3527(7) 0.2979(6)
C19 C 0.3471(7) 0.2535(7) 0.1966(6)
C20 C 0.4145(11) 0.2407(9) 0.1186(7)
H15 H 0.4903 0.2968 0.1260
C21 C 0.3698(14) 0.1452(11) 0.0301(8)
H16 H 0.4157 0.1360 -0.0220
C22 C 0.2551(14) 0.0621(10) 0.0189(8)
H17 H 0.2251 -0.0038 -0.0398
C23 C 0.1891(11) 0.0779(9) 0.0927(8)
H18 H 0.1116 0.0235 0.0841
C24 C 0.2327(8) 0.1730(8) 0.1819(7)
H19 H 0.1843 0.1824 0.2322
Ag1_2 Ag -0.30916(5) 0.53758(6) 0.06620(4)
Ag1A Ag 0.30916(5) 0.46242(6) -0.06620(4)
Ag2A Ag 0.42463(6) 0.42333(6) 0.54424(5)
O2A O 0.6648(5) 0.6456(6) 0.6352(4)
N3A N 0.5990(5) 0.3876(5) -0.0855(4)
N5_2 N 0.9157(5) 0.6058(5) 0.1016(4)
N7 N 0.8838(7) 0.1728(7) 0.2479(5)
O4 O 0.8324(17) 0.2174(16) 0.1657(10)
O5 O 0.8355(19) 0.196(2) 0.3247(12)
O6 O 0.9762(14) 0.1082(14) 0.2596(14)
O10 O 0.9435(13) 0.4820(13) 0.5091(11)
O12 O 0.5744(15) 0.0043(15) 0.2070(12)
O10A O 1.0565(13) 0.5180(13) 0.4909(11)
O7? O 0.9278(17) 0.2721(11) 0.2268(15)
O8? O 0.7874(15) 0.1660(17) 0.2829(17)
O9? O 0.9407(15) 0.0780(11) 0.2332(15)
O11? O 0.865(2) 0.4595(17) 0.5192(15)
loop_
_geom_bond_atom_site_label_1
_geom_bond_atom_site_label_2
_geom_bond_site_symmetry_1
_geom_bond_site_symmetry_2
Ag1 O3 1_555 1_555
Ag2 O1 1_555 1_555
O1 C18 1_555 1_555
O2 C18 1_555 1_555
O3 H1 1_555 1_555
H2 O3 1_555 1_555
N1 Ag2 1_555 1_555
N2 Ag1 1_555 1_555
N3 N2 1_555 1_555
N4 C6 1_555 1_555
N5 C10 1_555 1_555
N6 Ag2 1_555 1_555
C1 H3 1_555 1_555
C2 C1 1_555 1_555
H4 C2 1_555 1_555
C3 C2 1_555 1_555
H5 C3 1_555 1_555
C4 N1 1_555 1_555
H6 C4 1_555 1_555
C5 N1 1_555 1_555
C6 N2 1_555 1_555
C7 N3 1_555 1_555
C8 C7 1_555 1_555
C9 C8 1_555 1_555
H7 C9 1_555 1_555
C10 C9 1_555 1_555
H8 C10 1_555 1_555
C11 N5 1_555 1_555
H9 C11 1_555 1_555
C12 C8 1_555 1_555
H10 C12 1_555 1_555
C13 N4 1_555 1_555
C14 C13 1_555 1_555
H11 C14 1_555 1_555
C15 C14 1_555 1_555
H12 C15 1_555 1_555
C16 C15 1_555 1_555
H13 C16 1_555 1_555
C17 N6 1_555 1_555
H14 C17 1_555 1_555
C18 C19 1_555 1_555
C19 C20 1_555 1_555
C20 H15 1_555 1_555
C21 C20 1_555 1_555
H16 C21 1_555 1_555
C22 C21 1_555 1_555
H17 C22 1_555 1_555
C23 C22 1_555 1_555
H18 C23 1_555 1_555
C24 C19 1_555 1_555
H19 C24 1_555 1_555
N7 O4 1_555 1_555
O5 N7 1_555 1_555
O6 N7 1_555 1_555
Ag1_2 N5 1_555 1_555
Ag1A N3 1_555 1_555
Ag2A Ag2 1_555 1_555
O2A Ag2 1_555 1_555
N3A Ag1 1_555 1_555
N5_2 Ag1 1_555 1_555
O2 Ag2A 1_555 1_555
N4 C7 1_555 1_555
N6 C13 1_555 1_555
C1 C5 1_555 1_555
C3 C4 1_555 1_555
C5 C6 1_555 1_555
C11 C12 1_555 1_555
C16 C17 1_555 1_555
C23 C24 1_555 1_555

#END
