
#######################################################################
#
#                 Cambridge Crystallographic Data Centre
#                                CCDC 
#
#######################################################################
#
# If this CIF has been generated from an entry in the Cambridge 
# Structural Database, then it will include bibliographic, chemical, 
# crystal, experimental, refinement or atomic coordinate data resulting 
# from the CCDC's data processing and validation procedures.
#
#######################################################################

data_ZOZTUF
_symmetry_cell_setting           triclinic
_symmetry_space_group_name_H-M   'P -1'
_symmetry_Int_Tables_number      2
_space_group_name_Hall           '-P 1'
loop_
_symmetry_equiv_pos_site_id
_symmetry_equiv_pos_as_xyz
1 x,y,z
2 -x,-y,-z
_cell_length_a                   12.0568(6)
_cell_length_b                   13.5190(12)
_cell_length_c                   13.6902(7)
_cell_angle_alpha                105.7840(10)
_cell_angle_beta                 115.9610(10)
_cell_angle_gamma                102.4970(10)
_cell_volume                     1779.6
loop_
_atom_site_label
_atom_site_type_symbol
_atom_site_fract_x
_atom_site_fract_y
_atom_site_fract_z
Ag1 Ag 0.82983(2) 0.61812(2) 0.60594(2)
N1 N 0.7868(3) 0.9423(2) 0.6287(2)
N2 N 0.7033(3) 0.7855(2) 0.3355(2)
N3 N 0.7530(3) 0.7068(2) 0.3053(2)
N4 N 0.8831(2) 0.81081(19) 0.4983(2)
N5 N 1.0713(2) 0.5072(2) 0.4034(2)
N6 N 1.0038(2) 0.7986(2) 0.6797(2)
N7 N 1.1704(3) 0.7124(2) 0.9918(3)
N8 N 0.9611(2) 0.4194(2) 0.8292(2)
N9 N 0.8242(2) 0.3769(2) 0.7530(2)
N10 N 0.8940(2) 0.55869(19) 0.8452(2)
N11 N 0.3787(2) 0.4090(2) 0.5342(2)
N12 N 0.8549(2) 0.70666(19) 0.8002(2)
C1 C 0.7615(4) 1.0205(3) 0.6900(4)
H1 H 0.7792 1.0267 0.7652
C2 C 0.7111(5) 1.0918(3) 0.6480(4)
H2 H 0.6973 1.1460 0.6947
C3 C 0.6814(5) 1.0820(4) 0.5363(4)
H3 H 0.6468 1.1293 0.5057
C4 C 0.7038(4) 1.0007(3) 0.4697(4)
H4 H 0.6832 0.9911 0.3930
C5 C 0.7574(3) 0.9344(3) 0.5198(3)
C6 C 0.7808(3) 0.8460(2) 0.4503(3)
C7 C 0.8602(3) 0.7227(2) 0.4032(3)
C8 C 0.9378(3) 0.6524(2) 0.4066(2)
C9 C 0.8692(3) 0.5401(3) 0.3285(3)
H5 H 0.7771 0.5116 0.2754
C10 C 0.9388(3) 0.4717(3) 0.3303(3)
H6 H 0.8912 0.3966 0.2779
C11 C 1.1376(3) 0.6162(3) 0.4779(3)
H7 H 1.2298 0.6428 0.5290
C12 C 1.0755(3) 0.6905(2) 0.4823(3)
H8 H 1.1253 0.7652 0.5353
C13 C 0.9944(3) 0.8616(2) 0.6197(2)
C14 C 1.0835(3) 0.9689(3) 0.6649(3)
H9 H 1.0722 1.0094 0.6186
C15 C 1.1901(3) 1.0142(3) 0.7812(3)
H10 H 1.2527 1.0864 0.8150
C16 C 1.2028(3) 0.9516(3) 0.8467(3)
H11 H 1.2736 0.9806 0.9255
C17 C 1.1085(3) 0.8454(3) 0.7931(3)
H12 H 1.1174 0.8034 0.8378
C18 C 1.2987(3) 0.7830(3) 1.0669(3)
H13 H 1.3192 0.8588 1.0867
C19 C 1.4014(3) 0.7488(4) 1.1160(3)
H14 H 1.4890 0.8005 1.1694
C20 C 1.3727(4) 0.6378(4) 1.0853(4)
H15 H 1.4407 0.6125 1.1162
C21 C 1.2412(3) 0.5633(3) 1.0074(4)
H16 H 1.2192 0.4869 0.9838
C22 C 1.1434(3) 0.6047(3) 0.9656(3)
C23 C 1.0019(3) 0.5280(2) 0.8832(3)
C24 C 0.7853(3) 0.4603(2) 0.7625(2)
C25 C 0.6458(3) 0.4464(2) 0.6892(2)
C26 C 0.5669(3) 0.3582(3) 0.5768(3)
H17 H 0.6024 0.3096 0.5512
C27 C 0.4372(3) 0.3425(3) 0.5039(3)
H18 H 0.3865 0.2826 0.4291
C28 C 0.4547(3) 0.4936(3) 0.6424(3)
H19 H 0.4168 0.5410 0.6657
C29 C 0.5858(3) 0.5150(3) 0.7216(3)
H20 H 0.6340 0.5749 0.7963
C30 C 0.8910(3) 0.6679(2) 0.8831(2)
C31 C 0.9202(3) 0.7217(3) 0.9980(3)
H21 H 0.9460 0.6906 1.0530
C32 C 0.9092(3) 0.8240(3) 1.0272(3)
H22 H 0.9283 0.8639 1.1036
C33 C 0.8699(3) 0.8661(3) 0.9430(3)
H23 H 0.8603 0.9340 0.9609
C34 C 0.8447(3) 0.8064(3) 0.8310(3)
H24 H 0.8197 0.8361 0.7746
Ag1A Ag 0.17017(2) 0.38188(2) 0.39406(2)
Ag1A_2 Ag 1.17017(2) 0.38188(2) 0.39406(2)
N5A N 0.9287(2) 0.4928(2) 0.5966(2)
N11A N 0.6213(2) 0.5910(2) 0.4658(2)
S1 S 0.50913(9) 0.14359(8) 0.23298(8)
F1 F 0.5290(3) 0.1292(2) 0.0478(2)
F2 F 0.4387(3) 0.2387(3) 0.0868(3)
F3 F 0.6492(3) 0.2872(2) 0.1952(3)
O1 O 0.3803(3) 0.0560(2) 0.1536(2)
O2 O 0.6194(3) 0.1114(4) 0.2773(3)
O3 O 0.5155(4) 0.2354(3) 0.3196(3)
C35 C 0.5336(4) 0.2026(3) 0.1373(4)
O4 O 0.357(2) 0.3796(17) 0.9575(14)
loop_
_geom_bond_atom_site_label_1
_geom_bond_atom_site_label_2
_geom_bond_site_symmetry_1
_geom_bond_site_symmetry_2
Ag1 N6 1_555 1_555
N1 C1 1_555 1_555
N2 N3 1_555 1_555
N3 C7 1_555 1_555
N4 C6 1_555 1_555
N5 C10 1_555 1_555
N6 C13 1_555 1_555
N7 C18 1_555 1_555
N8 N9 1_555 1_555
N9 C24 1_555 1_555
N10 C23 1_555 1_555
N11 C27 1_555 1_555
N12 Ag1 1_555 1_555
C1 H1 1_555 1_555
C2 C1 1_555 1_555
H2 C2 1_555 1_555
C3 C2 1_555 1_555
H3 C3 1_555 1_555
C4 C3 1_555 1_555
H4 C4 1_555 1_555
C5 N1 1_555 1_555
C6 N2 1_555 1_555
C7 N4 1_555 1_555
C8 C7 1_555 1_555
C9 C8 1_555 1_555
H5 C9 1_555 1_555
C10 C9 1_555 1_555
H6 C10 1_555 1_555
C11 N5 1_555 1_555
H7 C11 1_555 1_555
C12 C8 1_555 1_555
H8 C12 1_555 1_555
C13 N4 1_555 1_555
C14 C13 1_555 1_555
H9 C14 1_555 1_555
C15 C14 1_555 1_555
H10 C15 1_555 1_555
C16 C15 1_555 1_555
H11 C16 1_555 1_555
C17 N6 1_555 1_555
H12 C17 1_555 1_555
C18 H13 1_555 1_555
C19 C18 1_555 1_555
H14 C19 1_555 1_555
C20 C19 1_555 1_555
H15 C20 1_555 1_555
C21 C20 1_555 1_555
H16 C21 1_555 1_555
C22 N7 1_555 1_555
C23 N8 1_555 1_555
C24 N10 1_555 1_555
C25 C24 1_555 1_555
C26 C25 1_555 1_555
H17 C26 1_555 1_555
C27 C26 1_555 1_555
H18 C27 1_555 1_555
C28 N11 1_555 1_555
H19 C28 1_555 1_555
C29 C25 1_555 1_555
H20 C29 1_555 1_555
C30 N10 1_555 1_555
C31 C30 1_555 1_555
H21 C31 1_555 1_555
C32 C31 1_555 1_555
H22 C32 1_555 1_555
C33 C32 1_555 1_555
H23 C33 1_555 1_555
C34 N12 1_555 1_555
H24 C34 1_555 1_555
S1 O1 1_555 1_555
F1 C35 1_555 1_555
F2 C35 1_555 1_555
F3 C35 1_555 1_555
O2 S1 1_555 1_555
O3 S1 1_555 1_555
C35 S1 1_555 1_555
Ag1A N11 1_555 1_555
Ag1A_2 N5 1_555 1_555
N5A Ag1 1_555 1_555
N11A Ag1 1_555 1_555
N12 C30 1_555 1_555
C4 C5 1_555 1_555
C5 C6 1_555 1_555
C11 C12 1_555 1_555
C16 C17 1_555 1_555
C21 C22 1_555 1_555
C22 C23 1_555 1_555
C28 C29 1_555 1_555
C33 C34 1_555 1_555

#END
