
#######################################################################
#
#                 Cambridge Crystallographic Data Centre
#                                CCDC 
#
#######################################################################
#
# If this CIF has been generated from an entry in the Cambridge 
# Structural Database, then it will include bibliographic, chemical, 
# crystal, experimental, refinement or atomic coordinate data resulting 
# from the CCDC's data processing and validation procedures.
#
#######################################################################

data_ZOZXUJ
_symmetry_cell_setting           monoclinic
_symmetry_space_group_name_H-M   'P 21/c'
_symmetry_Int_Tables_number      14
_space_group_name_Hall           '-P 2ybc'
loop_
_symmetry_equiv_pos_site_id
_symmetry_equiv_pos_as_xyz
1 x,y,z
2 -x,1/2+y,1/2-z
3 -x,-y,-z
4 x,1/2-y,1/2+z
_cell_length_a                   15.739(5)
_cell_length_b                   18.612(5)
_cell_length_c                   18.628(4)
_cell_angle_alpha                90
_cell_angle_beta                 121.439(18)
_cell_angle_gamma                90
_cell_volume                     4655.7
loop_
_atom_site_label
_atom_site_type_symbol
_atom_site_fract_x
_atom_site_fract_y
_atom_site_fract_z
Cu1 Cu 0.69936(5) 0.71251(3) 0.08067(4)
Cu2 Cu 0.23170(5) 1.21338(3) -0.45025(4)
N1 N 0.5802(3) 0.7267(2) -0.0247(2)
N2 N 0.4607(3) 0.7771(2) -0.1430(2)
N3 N 0.3404(3) 1.2006(2) -0.3380(3)
N4 N 0.4625(3) 1.1456(3) -0.2261(3)
N5 N 0.8013(3) 0.72943(19) 0.1950(2)
N6 N 0.9257(3) 0.70327(18) 0.3243(2)
N7 N 1.1306(3) 0.2617(2) 0.4552(2)
N8 N 1.0586(3) 0.3423(2) 0.3532(3)
O1 O 0.2998(3) 0.95999(16) -0.0262(2)
H1 H 0.2716 0.9769 0.0048
O2 O 0.3342(3) 1.07514(17) -0.0279(2)
O3 O 0.7754(3) 0.50743(17) 0.4478(2)
O4 O 0.7949(3) 0.39566(18) 0.4183(2)
O5 O 0.7495(3) 0.59332(19) 0.0801(2)
O6 O 0.7780(4) 0.6036(2) -0.0209(3)
O7 O 0.7443(4) 0.2212(2) 0.0356(3)
H2 H 0.7451 0.1725 0.0353
O8 O 0.7783(4) 0.2382(3) -0.0672(3)
C1 C 0.4172(4) 0.9057(3) -0.1740(3)
C2 C 0.4670(4) 0.9599(4) -0.1890(3)
H3 H 0.4949 0.9493 -0.2212
C3 C 0.7633(4) 0.5716(3) 0.0330(3)
C4 C 0.4766(4) 1.0283(3) -0.1582(3)
C5 C 0.4345(3) 1.0436(3) -0.1111(3)
H4 H 0.4399 1.0898 -0.0900
C6 C 0.3842(3) 0.9914(2) -0.0944(3)
C7 C 0.3756(3) 0.9226(2) -0.1258(3)
H5 H 0.3420 0.8875 -0.1147
C8 C 0.4066(4) 0.8317(3) -0.2090(3)
H6 H 0.3366 0.8191 -0.2414
H7 H 0.4316 0.8315 -0.2468
C9 C 0.5464(4) 0.7864(2) -0.0688(3)
H8 H 0.5786 0.8305 -0.0506
C10 C 0.5120(3) 0.6741(3) -0.0745(3)
C11 C 0.4370(3) 0.7054(3) -0.1481(3)
C12 C 0.3579(4) 0.6638(4) -0.2106(3)
H9 H 0.3078 0.6841 -0.2605
C13 C 0.3584(4) 0.5933(4) -0.1946(4)
H10 H 0.3069 0.5647 -0.2344
C14 C 0.4322(5) 0.5619(3) -0.1215(4)
H11 H 0.4292 0.5129 -0.1136
C15 C 0.5104(4) 0.6013(3) -0.0598(3)
H12 H 0.5600 0.5800 -0.0103
C16 C 0.5306(4) 1.0861(4) -0.1759(4)
H13 H 0.5846 1.1050 -0.1231
H14 H 0.5593 1.0654 -0.2064
C17 C 0.3913(4) 1.1400(3) -0.3063(3)
H15 H 0.3782 1.0979 -0.3374
C18 C 0.7603(5) 0.2592(4) -0.0107(6)
C19 C 0.3822(4) 1.2494(3) -0.2729(3)
C20 C 0.4578(4) 1.2155(4) -0.2024(4)
C21 C 0.5127(5) 1.2517(6) -0.1255(4)
H16 H 0.5630 1.2296 -0.0771
C22 C 0.4866(8) 1.3229(7) -0.1268(6)
H17 H 0.5219 1.3499 -0.0778
C23 C 0.4096(7) 1.3556(5) -0.1983(6)
H18 H 0.3940 1.4032 -0.1949
C24 C 0.3571(5) 1.3212(3) -0.2720(4)
H19 H 0.3066 1.3439 -0.3199
C25 C 0.3365(3) 1.0130(3) -0.0454(3)
C26 C 0.9768(3) 0.5836(2) 0.3852(3)
C27 C 1.0183(3) 0.5349(3) 0.3562(3)
H20 H 1.0655 0.5506 0.3439
C28 C 0.9911(3) 0.4637(2) 0.3450(3)
C29 C 0.9236(3) 0.4400(2) 0.3660(3)
H21 H 0.9063 0.3916 0.3600
C30 C 0.8814(3) 0.4876(2) 0.3960(2)
C31 C 0.9087(3) 0.5594(2) 0.4050(2)
H22 H 0.8805 0.5918 0.4248
C32 C 1.0042(3) 0.6617(2) 0.3943(3)
H23 H 1.0140 0.6797 0.4470
H24 H 1.0662 0.6674 0.3956
C33 C 0.8637(3) 0.6796(2) 0.2444(3)
H25 H 0.8651 0.6332 0.2267
C34 C 0.8238(3) 0.7905(2) 0.2458(3)
C35 C 0.9018(3) 0.7742(2) 0.3265(3)
C36 C 0.9421(4) 0.8248(3) 0.3908(3)
H26 H 0.9953 0.8140 0.4443
C37 C 0.8986(5) 0.8913(3) 0.3708(4)
H27 H 0.9228 0.9268 0.4120
C38 C 0.8194(4) 0.9074(3) 0.2905(4)
H28 H 0.7921 0.9533 0.2798
C39 C 0.7802(4) 0.8576(2) 0.2264(3)
H29 H 0.7271 0.8687 0.1729
C40 C 1.0401(5) 0.4127(3) 0.3135(4)
H30 H 0.9973 0.4072 0.2530
H31 H 1.1027 0.4331 0.3250
C41 C 1.1338(4) 0.3274(3) 0.4312(3)
H32 H 1.1833 0.3603 0.4649
C42 C 1.0445(4) 0.2313(3) 0.3870(3)
C43 C 0.9995(4) 0.2822(3) 0.3229(3)
C44 C 0.9146(5) 0.2669(5) 0.2465(4)
H33 H 0.8852 0.3011 0.2039
C45 C 0.8753(5) 0.1987(6) 0.2360(5)
H34 H 0.8191 0.1864 0.1848
C46 C 0.9181(6) 0.1480(5) 0.3003(5)
H35 H 0.8888 0.1029 0.2918
C47 C 1.0039(5) 0.1636(3) 0.3772(4)
H36 H 1.0328 0.1298 0.4202
C48 C 0.8115(3) 0.4605(2) 0.4223(3)
C49 C 0.7666(4) 0.4899(3) 0.0196(3)
C50 C 0.7467(4) 0.4432(3) 0.0681(4)
H37 H 0.7353 0.4622 0.1085
C51 C 0.7439(5) 0.3701(3) 0.0573(4)
H38 H 0.7294 0.3401 0.0894
C52 C 0.7625(4) 0.3415(3) -0.0004(4)
C53 C 0.7821(5) 0.3847(4) -0.0498(4)
H39 H 0.7944 0.3644 -0.0891
C54 C 0.7834(5) 0.4594(3) -0.0406(4)
H40 H 0.7955 0.4889 -0.0746
Cu2_2 Cu 1.23170(5) 0.21338(3) 0.54975(4)
Cu2A Cu 0.76830(5) 0.71338(3) -0.04975(4)
N7_2 N 0.1306(3) 1.2617(2) -0.5448(2)
O6A O 0.2220(4) 1.1036(2) -0.4791(3)
loop_
_geom_bond_atom_site_label_1
_geom_bond_atom_site_label_2
_geom_bond_site_symmetry_1
_geom_bond_site_symmetry_2
Cu1 N1 1_555 1_555
Cu2 N3 1_555 1_555
N1 C9 1_555 1_555
N2 C8 1_555 1_555
N3 C17 1_555 1_555
N4 C16 1_555 1_555
N5 Cu1 1_555 1_555
N6 C32 1_555 1_555
N7 C41 1_555 1_555
N8 C40 1_555 1_555
O1 H1 1_555 1_555
O2 C25 1_555 1_555
O3 C48 1_555 1_555
O4 C48 1_555 1_555
O5 Cu1 1_555 1_555
O6 C3 1_555 1_555
O7 H2 1_555 1_555
O8 C18 1_555 1_555
C1 C2 1_555 1_555
C2 H3 1_555 1_555
C3 O5 1_555 1_555
C4 C2 1_555 1_555
C5 C4 1_555 1_555
H4 C5 1_555 1_555
C6 C5 1_555 1_555
C7 C1 1_555 1_555
H5 C7 1_555 1_555
C8 C1 1_555 1_555
H6 C8 1_555 1_555
H7 C8 1_555 1_555
C9 N2 1_555 1_555
H8 C9 1_555 1_555
C10 N1 1_555 1_555
C11 N2 1_555 1_555
C12 C11 1_555 1_555
H9 C12 1_555 1_555
C13 C12 1_555 1_555
H10 C13 1_555 1_555
C14 C13 1_555 1_555
H11 C14 1_555 1_555
C15 C10 1_555 1_555
H12 C15 1_555 1_555
C16 C4 1_555 1_555
H13 C16 1_555 1_555
H14 C16 1_555 1_555
C17 N4 1_555 1_555
H15 C17 1_555 1_555
C18 O7 1_555 1_555
C19 N3 1_555 1_555
C20 N4 1_555 1_555
C21 C20 1_555 1_555
H16 C21 1_555 1_555
C22 C21 1_555 1_555
H17 C22 1_555 1_555
C23 C22 1_555 1_555
H18 C23 1_555 1_555
C24 C19 1_555 1_555
H19 C24 1_555 1_555
C25 O1 1_555 1_555
C26 C27 1_555 1_555
C27 H20 1_555 1_555
C28 C27 1_555 1_555
C29 C28 1_555 1_555
H21 C29 1_555 1_555
C30 C29 1_555 1_555
C31 C26 1_555 1_555
H22 C31 1_555 1_555
C32 C26 1_555 1_555
H23 C32 1_555 1_555
H24 C32 1_555 1_555
C33 N5 1_555 1_555
H25 C33 1_555 1_555
C34 N5 1_555 1_555
C35 N6 1_555 1_555
C36 C35 1_555 1_555
H26 C36 1_555 1_555
C37 C36 1_555 1_555
H27 C37 1_555 1_555
C38 C37 1_555 1_555
H28 C38 1_555 1_555
C39 C34 1_555 1_555
H29 C39 1_555 1_555
C40 C28 1_555 1_555
H30 C40 1_555 1_555
H31 C40 1_555 1_555
C41 N8 1_555 1_555
H32 C41 1_555 1_555
C42 N7 1_555 1_555
C43 N8 1_555 1_555
C44 C43 1_555 1_555
H33 C44 1_555 1_555
C45 C44 1_555 1_555
H34 C45 1_555 1_555
C46 C45 1_555 1_555
H35 C46 1_555 1_555
C47 C42 1_555 1_555
H36 C47 1_555 1_555
C48 C30 1_555 1_555
C49 C3 1_555 1_555
C50 C49 1_555 1_555
H37 C50 1_555 1_555
C51 C50 1_555 1_555
H38 C51 1_555 1_555
C52 C18 1_555 1_555
C53 C52 1_555 1_555
H39 C53 1_555 1_555
C54 C49 1_555 1_555
H40 C54 1_555 1_555
Cu2_2 N7 1_555 1_555
Cu2A O6 1_555 1_555
N7_2 Cu2 1_555 1_555
O6A Cu2 1_555 1_555
N6 C33 1_555 1_555
C6 C7 1_555 1_555
C6 C25 1_555 1_555
C10 C11 1_555 1_555
C14 C15 1_555 1_555
C19 C20 1_555 1_555
C23 C24 1_555 1_555
C30 C31 1_555 1_555
C34 C35 1_555 1_555
C38 C39 1_555 1_555
C42 C43 1_555 1_555
C46 C47 1_555 1_555
C51 C52 1_555 1_555
C53 C54 1_555 1_555

#END
