
#######################################################################
#
#                 Cambridge Crystallographic Data Centre
#                                CCDC 
#
#######################################################################
#
# If this CIF has been generated from an entry in the Cambridge 
# Structural Database, then it will include bibliographic, chemical, 
# crystal, experimental, refinement or atomic coordinate data resulting 
# from the CCDC's data processing and validation procedures.
#
#######################################################################

data_ZUBCEG
_symmetry_cell_setting           triclinic
_symmetry_space_group_name_H-M   'P -1'
_symmetry_Int_Tables_number      2
_space_group_name_Hall           '-P 1'
loop_
_symmetry_equiv_pos_site_id
_symmetry_equiv_pos_as_xyz
1 x,y,z
2 -x,-y,-z
_cell_length_a                   10.9539(10)
_cell_length_b                   17.4492(15)
_cell_length_c                   18.700(2)
_cell_angle_alpha                88.868(5)
_cell_angle_beta                 86.160(7)
_cell_angle_gamma                76.462(6)
_cell_volume                     3467.11
loop_
_atom_site_label
_atom_site_type_symbol
_atom_site_fract_x
_atom_site_fract_y
_atom_site_fract_z
Ba1 Ba 0.40167(4) 0.39294(2) 0.49075(2)
Ba2 Ba 0.44130(4) 0.46473(2) 0.24564(2)
Ba3 Ba 0.14237(4) 0.64461(3) 0.03220(2)
Ba4 Ba -0.19844(4) 0.09600(3) -0.01556(2)
Ba5 Ba 0.11344(4) -0.04126(2) 0.26078(2)
Ba6 Ba 0.20044(4) 0.17734(2) 0.45978(2)
Fe1 Fe 0.10873(11) 0.63600(7) 0.36585(6)
Fe2 Fe 0.39548(11) 0.32055(7) 0.82403(6)
Fe3 Fe 0.26340(11) 0.14500(6) 0.12777(6)
Fe4 Fe 0.74537(11) 0.14279(7) 0.32200(6)
O1 O 0.2195(5) 0.5620(3) 0.4318(3)
O2 O 0.3780(5) 0.5553(3) 0.5013(3)
O3 O 0.2197(5) 0.7072(3) 0.3926(3)
O4 O 0.3697(5) 0.7117(3) 0.4674(3)
O5 O -0.0261(5) 0.6894(3) 0.4389(3)
O6 O -0.1883(5) 0.6670(3) 0.5071(3)
O7 O -0.0063(5) 0.5593(3) 0.3663(3)
O8 O -0.1787(5) 0.5363(3) 0.4256(3)
O9 O 0.2216(5) 0.5829(3) 0.2822(3)
O10 O 0.2585(6) 0.5956(3) 0.1642(3)
O11 O 0.0334(5) 0.7060(3) 0.2862(3)
O12 O 0.0497(6) 0.7202(3) 0.1666(3)
O13 O 0.4722(5) 0.3933(3) 0.7553(3)
O14 O 0.4764(5) 0.4297(3) 0.6401(3)
O15 O 0.3746(5) 0.2752(3) 0.7288(3)
O16 O 0.3675(6) 0.3060(3) 0.6127(3)
O17 O 0.5677(5) 0.2480(3) 0.8404(3)
O18 O 0.7297(5) 0.2380(3) 0.9097(3)
O19 O 0.4402(5) 0.3722(4) 0.9100(3)
O20 O 0.5990(7) 0.3662(5) 0.9814(4)
O21 O 0.2302(6) 0.4053(3) 0.8311(3)
O22 O 0.0402(7) 0.4280(4) 0.8953(4)
O23 O 0.2923(6) 0.2563(4) 0.8786(3)
O24 O 0.1127(6) 0.2732(4) 0.9454(4)
O25 O 0.0946(5) 0.2119(3) 0.0992(3)
O26 O -0.0626(5) 0.2079(3) 0.0290(3)
O27 O 0.2117(5) 0.0682(3) 0.0627(3)
O28 O 0.0666(5) 0.0593(3) -0.0117(3)
O29 O 0.3615(5) 0.1934(3) 0.0542(3)
O30 O 0.5447(5) 0.1680(4) -0.0108(3)
O31 O 0.4299(5) 0.0641(3) 0.1294(3)
O32 O 0.6191(5) 0.0323(3) 0.0693(3)
O33 O 0.1867(5) 0.0975(3) 0.2137(3)
O34 O 0.1442(5) 0.1114(3) 0.3317(3)
O35 O 0.2832(5) 0.2196(3) 0.2048(3)
O36 O 0.2533(6) 0.2407(3) 0.3229(3)
O37 O 0.6826(5) 0.1883(3) 0.2286(3)
O38 O 0.7145(6) 0.1760(4) 0.1105(3)
O39 O 0.8666(5) 0.0685(3) 0.2529(3)
O40 O 0.9223(6) 0.0535(3) 0.1362(3)
O41 O 0.6173(5) 0.0777(3) 0.3420(3)
O42 O 0.4217(5) 0.0847(3) 0.3898(3)
O43 O 0.6059(5) 0.2226(3) 0.3745(3)
O44 O 0.4229(5) 0.2349(3) 0.4386(3)
O45 O 0.8501(5) 0.2232(3) 0.3258(3)
O46 O 0.9734(5) 0.2644(3) 0.3997(3)
O47 O 0.8389(5) 0.1012(3) 0.4084(3)
O48 O 0.9767(5) 0.1301(3) 0.4805(3)
O49 O 0.2942(6) 0.3962(4) 0.3511(3)
H1 H 0.2109 0.4263 0.3440
H2 H 0.2898 0.3432 0.3434
O50 O 0.5671(5) 0.3827(3) 0.3604(3)
H3 H 0.6513 0.3901 0.3570
H4 H 0.5773 0.3273 0.3559
O51 O 0.2453(8) 0.4261(5) 0.1816(4)
H5 H 0.2417 0.4040 0.1353
H6 H 0.1852 0.4066 0.2124
O52 O 0.4949(7) 0.4641(4) 0.0998(3)
H7 H 0.4405 0.5066 0.0766
H8 H 0.5304 0.4281 0.0616
O53 O 0.7093(6) 0.4466(3) 0.2196(3)
H9 H 0.7383 0.4913 0.2018
H10 H 0.7576 0.4294 0.2604
O54 O 0.2850(9) 0.4949(5) 0.0019(4)
H11 H 0.2227 0.4654 0.0128
H12 H 0.3383 0.4670 -0.0369
O55 O 0.2613(8) 0.6583(4) -0.1044(4)
H13 H 0.2716 0.7078 -0.1225
H14 H 0.2656 0.6271 -0.1466
O56 O 0.0233(7) 0.5937(4) -0.0823(4)
H15 H 0.0216 0.6136 -0.1307
H16 H 0.0254 0.5392 -0.0874
O57 O -0.3151(5) 0.0764(3) -0.1481(3)
H17 H -0.3613 0.0366 -0.1507
H18 H -0.3756 0.1243 -0.1559
O58 O -0.0408(5) 0.1176(3) -0.1441(3)
H19 H -0.0468 0.1706 -0.1590
H20 H 0.0477 0.0958 -0.1422
O59 O 0.2473(6) -0.1928(3) 0.2759(3)
H21 H 0.3263 -0.2175 0.2514
H22 H 0.2483 -0.2178 0.3222
O60 O 0.3507(6) -0.0436(3) 0.3145(3)
H23 H 0.3816 -0.0846 0.3478
H24 H 0.3766 0.0008 0.3319
O61 O 0.0886(7) -0.0415(4) 0.4033(3)
H25 H 0.1076 -0.0036 0.4343
H26 H 0.0837 -0.0850 0.4344
O62 O -0.0537(7) -0.1280(4) 0.3146(4)
H27 H -0.1440 -0.1141 0.3176
H28 H -0.0327 -0.1837 0.3198
O63 O 0.2408(6) 0.0171(3) 0.5012(3)
H29 H 0.1922 0.0009 0.5412
H30 H 0.3064 -0.0283 0.4894
O64 O 0.3281(6) 0.1638(3) 0.5833(3)
H31 H 0.3339 0.2106 0.6068
H32 H 0.3077 0.1307 0.6217
C1 C 0.2989(7) 0.5914(4) 0.4609(4)
C2 C 0.2975(7) 0.6787(4) 0.4400(4)
C3 C -0.1064(7) 0.6494(4) 0.4574(4)
C4 C -0.0981(8) 0.5738(4) 0.4134(4)
C5 C 0.1981(7) 0.6159(4) 0.2204(4)
C6 C 0.0831(7) 0.6871(4) 0.2235(4)
C7 C 0.4524(7) 0.3866(4) 0.6898(4)
C8 C 0.3923(8) 0.3167(5) 0.6744(4)
C9 C 0.6233(8) 0.2709(5) 0.8920(5)
C10 C 0.5488(9) 0.3435(6) 0.9316(5)
C11 C 0.1462(10) 0.3843(6) 0.8748(6)
C12 C 0.1845(10) 0.2983(6) 0.9035(5)
C13 C 0.0399(8) 0.1793(5) 0.0542(4)
C14 C 0.1103(7) 0.0959(4) 0.0320(4)
C15 C 0.4716(7) 0.1521(4) 0.0367(4)
C16 C 0.5135(8) 0.0758(5) 0.0812(4)
C17 C 0.2441(7) 0.2052(4) 0.2686(4)
C18 C 0.1847(7) 0.1325(4) 0.2742(4)
C19 C 0.7409(8) 0.1555(5) 0.1719(4)
C20 C 0.8541(8) 0.0857(5) 0.1867(4)
C21 C 0.5137(7) 0.1123(4) 0.3767(4)
C22 C 0.5113(7) 0.1972(4) 0.4005(4)
C23 C 0.9144(8) 0.2167(5) 0.3819(4)
C24 C 0.9118(7) 0.1432(5) 0.4288(4)
O65 O 0.4773(6) 0.3107(3) 0.2149(4)
H33 H 0.5435 0.2641 0.2117
H34 H 0.4038 0.2940 0.2034
Ba1A Ba -0.40167(4) 0.60706(2) 0.50925(2)
Ba1A_2 Ba 0.59833(4) 0.60706(2) 0.50925(2)
Ba2A Ba 0.55870(4) 0.53527(2) 0.75436(2)
Ba3A Ba -0.14237(4) 0.35539(3) -0.03220(2)
Ba3A_2 Ba -0.14237(4) 0.35539(3) 0.96780(2)
Ba3A_3 Ba 0.85763(4) 0.35539(3) 0.96780(2)
Ba4_2 Ba 0.80156(4) 0.09600(3) -0.01556(2)
Ba4_3 Ba 0.80156(4) 0.09600(3) 0.98444(2)
Ba4A Ba 0.19844(4) -0.09600(3) 0.01556(2)
Ba5_2 Ba 1.11344(4) -0.04126(2) 0.26078(2)
Ba5A Ba -0.11344(4) 0.04126(2) -0.26078(2)
Ba6_2 Ba 1.20044(4) 0.17734(2) 0.45978(2)
Ba6A Ba -0.20044(4) 0.82266(2) 0.54022(2)
O2A O 0.6220(5) 0.4447(3) 0.4987(3)
O4A O 0.6303(5) 0.2883(3) 0.5326(3)
O5A O 0.0261(5) 0.3106(3) 0.5611(3)
O6A O 0.1883(5) 0.3330(3) 0.4929(3)
O8A O 0.1787(5) 0.4637(3) 0.5744(3)
O13A O 0.5278(5) 0.6067(3) 0.2447(3)
O14A O 0.5236(5) 0.5703(3) 0.3599(3)
O18_2 O -0.2703(5) 0.2380(3) -0.0903(3)
O18A O 0.2703(5) 0.7620(3) 0.0903(3)
O20A O 0.4010(7) 0.6338(5) 0.0186(4)
O22A O -0.0402(7) 0.5720(4) 0.1047(4)
O24A O -0.1127(6) 0.7268(4) 0.0546(4)
O26A O 0.0626(5) 0.7921(3) -0.0290(3)
O27A O -0.2117(5) -0.0682(3) -0.0627(3)
O28A O -0.0666(5) -0.0593(3) 0.0117(3)
O30_2 O -0.4553(5) 0.1680(4) -0.0108(3)
O32_2 O -0.3809(5) 0.0323(3) 0.0693(3)
O38_2 O -0.2855(6) 0.1760(4) 0.1105(3)
O39_2 O -0.1334(5) 0.0685(3) 0.2529(3)
O40_2 O -0.0777(6) 0.0535(3) 0.1362(3)
O46_2 O -0.0266(5) 0.2644(3) 0.3997(3)
O48_2 O -0.0233(5) 0.1301(3) 0.4805(3)
O57A O 0.3151(5) -0.0764(3) 0.1481(3)
O58A O 0.0408(5) -0.1176(3) 0.1441(3)
O66 O 0.5950(6) 0.1264(3) 0.5523(4)
H35 H 0.5053 0.1385 0.5507
H36 H 0.6160 0.1763 0.5528
O67 O 0.6936(8) -0.0766(4) 0.2947(4)
H37 H 0.6855 -0.0904 0.2460
H38 H 0.6402 -0.0253 0.3005
O68 O -0.0289(7) 0.3070(4) 0.2173(4)
H39 H 0.0158 0.2616 0.1908
H40 H -0.1036 0.2932 0.2379
O69 O 0.2426(8) 0.3563(4) 0.0518(5)
H41 H 0.2900 0.3036 0.0444
H42 H 0.1588 0.3553 0.0408
O70 O 0.0664(9) 0.4238(6) 0.2833(6)
O71 O -0.1886(6) 0.4062(3) 0.3517(3)
H43 H -0.1770 0.4483 0.3804
H44 H -0.1296 0.3611 0.3682
O72 O 0.2536(8) 0.0991(4) 0.8523(4)
H45 H 0.3113 0.0624 0.8797
H46 H 0.2651 0.1491 0.8658
O73? O 0.397(3) 0.1015(18) 0.8390(18)
loop_
_geom_bond_atom_site_label_1
_geom_bond_atom_site_label_2
_geom_bond_site_symmetry_1
_geom_bond_site_symmetry_2
Ba1 O2 1_555 1_555
Ba2 O9 1_555 1_555
Ba3 O10 1_555 1_555
Ba4 O26 1_555 1_555
Ba5 O33 1_555 1_555
Ba6 O34 1_555 1_555
Fe1 O1 1_555 1_555
Fe2 O13 1_555 1_555
Fe3 O25 1_555 1_555
Fe4 O37 1_555 1_555
O1 C1 1_555 1_555
O2 C1 1_555 1_555
O3 Fe1 1_555 1_555
O4 C2 1_555 1_555
O5 Fe1 1_555 1_555
O6 C3 1_555 1_555
O7 Fe1 1_555 1_555
O8 C4 1_555 1_555
O9 Fe1 1_555 1_555
O10 Ba2 1_555 1_555
O11 Fe1 1_555 1_555
O12 Ba3 1_555 1_555
O13 C7 1_555 1_555
O14 Ba1 1_555 1_555
O15 Fe2 1_555 1_555
O16 Ba1 1_555 1_555
O17 Fe2 1_555 1_555
O18 C9 1_555 1_555
O19 Fe2 1_555 1_555
O20 C10 1_555 1_555
O21 Fe2 1_555 1_555
O22 C11 1_555 1_555
O23 Fe2 1_555 1_555
O24 C12 1_555 1_555
O25 C13 1_555 1_555
O26 C13 1_555 1_555
O27 Fe3 1_555 1_555
O28 Ba4 1_555 1_555
O29 Fe3 1_555 1_555
O30 C15 1_555 1_555
O31 Fe3 1_555 1_555
O32 C16 1_555 1_555
O33 Fe3 1_555 1_555
O34 Ba5 1_555 1_555
O35 Fe3 1_555 1_555
O36 Ba6 1_555 1_555
O37 C19 1_555 1_555
O38 C19 1_555 1_555
O39 Fe4 1_555 1_555
O40 C20 1_555 1_555
O41 Fe4 1_555 1_555
O42 Ba6 1_555 1_555
O43 Fe4 1_555 1_555
O44 Ba1 1_555 1_555
O45 Fe4 1_555 1_555
O46 C23 1_555 1_555
O47 Fe4 1_555 1_555
O48 C24 1_555 1_555
O49 Ba1 1_555 1_555
H1 O49 1_555 1_555
H2 O49 1_555 1_555
O50 Ba1 1_555 1_555
H3 O50 1_555 1_555
H4 O50 1_555 1_555
O51 Ba2 1_555 1_555
H5 O51 1_555 1_555
H6 O51 1_555 1_555
O52 Ba2 1_555 1_555
H7 O52 1_555 1_555
H8 O52 1_555 1_555
O53 Ba2 1_555 1_555
H9 O53 1_555 1_555
H10 O53 1_555 1_555
O54 Ba3 1_555 1_555
H11 O54 1_555 1_555
H12 O54 1_555 1_555
O55 Ba3 1_555 1_555
H13 O55 1_555 1_555
H14 O55 1_555 1_555
O56 Ba3 1_555 1_555
H15 O56 1_555 1_555
H16 O56 1_555 1_555
O57 Ba4 1_555 1_555
H17 O57 1_555 1_555
H18 O57 1_555 1_555
O58 Ba4 1_555 1_555
H19 O58 1_555 1_555
H20 O58 1_555 1_555
O59 Ba5 1_555 1_555
H21 O59 1_555 1_555
H22 O59 1_555 1_555
O60 Ba5 1_555 1_555
H23 O60 1_555 1_555
H24 O60 1_555 1_555
O61 Ba5 1_555 1_555
H25 O61 1_555 1_555
H26 O61 1_555 1_555
O62 Ba5 1_555 1_555
H27 O62 1_555 1_555
H28 O62 1_555 1_555
O63 Ba6 1_555 1_555
H29 O63 1_555 1_555
H30 O63 1_555 1_555
O64 Ba6 1_555 1_555
H31 O64 1_555 1_555
H32 O64 1_555 1_555
C1 C2 1_555 1_555
C2 O3 1_555 1_555
C3 O5 1_555 1_555
C4 O7 1_555 1_555
C5 O9 1_555 1_555
C6 O11 1_555 1_555
C7 O14 1_555 1_555
C8 O15 1_555 1_555
C9 O17 1_555 1_555
C10 O19 1_555 1_555
C11 O21 1_555 1_555
C12 O23 1_555 1_555
C13 C14 1_555 1_555
C14 O27 1_555 1_555
C15 O29 1_555 1_555
C16 O31 1_555 1_555
C17 O35 1_555 1_555
C18 O33 1_555 1_555
C19 C20 1_555 1_555
C20 O39 1_555 1_555
C21 O41 1_555 1_555
C22 O43 1_555 1_555
C23 O45 1_555 1_555
C24 O47 1_555 1_555
O65 Ba2 1_555 1_555
H33 O65 1_555 1_555
H34 O65 1_555 1_555
O66 H35 1_555 1_555
H36 O66 1_555 1_555
O67 H37 1_555 1_555
H38 O67 1_555 1_555
O68 H39 1_555 1_555
H40 O68 1_555 1_555
O69 H41 1_555 1_555
H42 O69 1_555 1_555
O71 H43 1_555 1_555
H44 O71 1_555 1_555
O72 H45 1_555 1_555
H46 O72 1_555 1_555
Ba1A O6 1_555 1_555
Ba1A_2 O2 1_555 1_555
Ba2A O13 1_555 1_555
Ba3A O26 1_555 1_555
Ba3A_2 O22 1_555 1_555
Ba3A_3 O18 1_555 1_555
Ba4_2 O30 1_555 1_555
Ba4_3 O18 1_555 1_555
Ba4A O27 1_555 1_555
Ba5_2 O39 1_555 1_555
Ba5A O57 1_555 1_555
Ba6_2 O46 1_555 1_555
Ba6A O5 1_555 1_555
O2A Ba1 1_555 1_555
O4A Ba1 1_555 1_555
O5A Ba6 1_555 1_555
O6A Ba1 1_555 1_555
O8A Ba1 1_555 1_555
O13A Ba2 1_555 1_555
O14A Ba2 1_555 1_555
O18_2 Ba4 1_555 1_555
O18A Ba3 1_555 1_555
O20A Ba3 1_555 1_555
O22A Ba3 1_555 1_555
O24A Ba3 1_555 1_555
O26A Ba3 1_555 1_555
O27A Ba4 1_555 1_555
O28A Ba4 1_555 1_555
O30_2 Ba4 1_555 1_555
O32_2 Ba4 1_555 1_555
O38_2 Ba4 1_555 1_555
O39_2 Ba5 1_555 1_555
O40_2 Ba4 1_555 1_555
O46_2 Ba6 1_555 1_555
O48_2 Ba6 1_555 1_555
O57A Ba5 1_555 1_555
O58A Ba5 1_555 1_555
Ba2 O49 1_555 1_555
Ba2 O50 1_555 1_555
Ba6 O44 1_555 1_555
Ba6 O6A 1_555 1_555
O4 Ba1A_2 1_555 1_555
O6 Ba6A 1_555 1_555
O8 Ba1A 1_555 1_555
O10 C5 1_555 1_555
O12 C6 1_555 1_555
O14 Ba2A 1_555 1_555
O16 C8 1_555 1_555
O20 Ba3A_3 1_555 1_555
O24 Ba3A_2 1_555 1_555
O28 C14 1_555 1_555
O28 Ba4A 1_555 1_555
O32 Ba4_2 1_555 1_555
O34 C18 1_555 1_555
O36 C17 1_555 1_555
O38 Ba4_2 1_555 1_555
O40 Ba4_2 1_555 1_555
O42 C21 1_555 1_555
O44 C22 1_555 1_555
O48 Ba6_2 1_555 1_555
O58 Ba5A 1_555 1_555
C3 C4 1_555 1_555
C5 C6 1_555 1_555
C7 C8 1_555 1_555
C9 C10 1_555 1_555
C11 C12 1_555 1_555
C15 C16 1_555 1_555
C17 C18 1_555 1_555
C21 C22 1_555 1_555
C23 C24 1_555 1_555
Ba1A_2 O2A 1_555 1_555
Ba1A_2 O14A 1_555 1_555
Ba3A O18_2 1_555 1_555
Ba4A O28A 1_555 1_555
Ba4A O57A 1_555 1_555
Ba4A O58A 1_555 1_555

#END
