
#######################################################################
#
#                 Cambridge Crystallographic Data Centre
#                                CCDC 
#
#######################################################################
#
# If this CIF has been generated from an entry in the Cambridge 
# Structural Database, then it will include bibliographic, chemical, 
# crystal, experimental, refinement or atomic coordinate data resulting 
# from the CCDC's data processing and validation procedures.
#
#######################################################################

data_ZUBFOT
_symmetry_cell_setting           monoclinic
_symmetry_space_group_name_H-M   'P 21/n'
_symmetry_Int_Tables_number      14
_space_group_name_Hall           '-P 2yn'
loop_
_symmetry_equiv_pos_site_id
_symmetry_equiv_pos_as_xyz
1 x,y,z
2 1/2-x,1/2+y,1/2-z
3 -x,-y,-z
4 1/2+x,1/2-y,1/2+z
_cell_length_a                   9.387
_cell_length_b                   23.272
_cell_length_c                   9.753
_cell_angle_alpha                90
_cell_angle_beta                 110.50
_cell_angle_gamma                90
_cell_volume                     1995.66
loop_
_atom_site_label
_atom_site_type_symbol
_atom_site_fract_x
_atom_site_fract_y
_atom_site_fract_z
Pb1 Pb 1.01990(8) 0.09015(3) 0.44366(7)
C1 C 1.026(4) 0.0713(10) -0.196(2)
C2 C 0.960(2) 0.0789(8) -0.081(2)
C3 C 1.015(3) 0.0736(9) 0.069(2)
C4 C 1.176(2) 0.0597(9) 0.172(2)
C5 C 0.778(3) 0.0905(8) 0.004(2)
C6 C 0.753(3) 0.1990(10) 0.346(3)
C7 C 0.866(2) 0.2257(8) 0.292(2)
C8 C 0.860(2) 0.2764(9) 0.218(2)
C9 C 0.737(3) 0.3207(10) 0.160(3)
C10 C 1.076(2) 0.2353(9) 0.256(2)
N1 N 0.804(2) 0.0886(8) -0.123(2)
H1 H 0.7387 0.0925 -0.2100
N2 N 0.898(2) 0.0818(7) 0.1245(18)
N3 N 1.0050(18) 0.1991(7) 0.3148(17)
N4 N 0.996(2) 0.2821(7) 0.2028(18)
H2 H 1.0263 0.3110 0.1650
O1 O 1.1986(18) 0.0569(8) 0.3051(15)
O2 O 1.1902(18) 0.0015(6) 0.6030(14)
O3 O 1.2742(18) 0.0511(7) 0.1156(16)
O4 O 1.177(2) 0.0606(9) -0.1518(17)
O5 O 0.956(3) 0.0691(6) -0.320(2)
O6 O 0.781(2) 0.1508(7) 0.409(2)
O7 O 0.6238(17) 0.2233(7) 0.319(2)
H3 H 0.62(3) 0.269(6) 0.25(2)
O8 O 0.608(2) 0.3124(8) 0.178(2)
O9 O 0.766(2) 0.3634(7) 0.0987(18)
C11 C 0.623(3) 0.0973(10) 0.005(2)
F1 F 0.521(2) 0.0878(10) -0.118(2)
F2 F 0.595(2) 0.1540(10) 0.015(3)
F3 F 0.604(2) 0.0772(13) 0.114(3)
C12 C 1.231(3) 0.2276(10) 0.259(3)
F4 F 1.298(2) 0.1816(8) 0.316(4)
F5 F 1.325(4) 0.2602(14) 0.372(3)
F6 F 1.265(3) 0.2523(13) 0.164(3)
H4 H 1.22(3) 0.061(8) -0.017(2)
Pb1_2 Pb 1.01990(8) 0.09015(3) -0.55634(7)
Pb1B Pb 0.98010(8) -0.09015(3) 0.55634(7)
Pb1C Pb 0.51990(8) 0.40985(3) -0.05634(7)
O2B O 0.8098(18) -0.0015(6) 0.3970(14)
O5_2 O 0.956(3) 0.0691(6) 0.680(2)
O9C O 1.266(2) 0.1366(7) 0.5987(18)
O10 O 0.1079(15) 0.3765(5) 0.1024(13)
loop_
_geom_bond_atom_site_label_1
_geom_bond_atom_site_label_2
_geom_bond_site_symmetry_1
_geom_bond_site_symmetry_2
Pb1 N3 1_555 1_555
C1 C2 1_555 1_555
C2 C3 1_555 1_555
C3 C4 1_555 1_555
C4 O1 1_555 1_555
C5 N1 1_555 1_555
C6 C7 1_555 1_555
C7 C8 1_555 1_555
C8 C9 1_555 1_555
C9 O8 1_555 1_555
C10 N3 1_555 1_555
N1 C2 1_555 1_555
H1 N1 1_555 1_555
N2 C3 1_555 1_555
N3 C7 1_555 1_555
N4 C8 1_555 1_555
H2 N4 1_555 1_555
O1 Pb1 1_555 1_555
O2 Pb1 1_555 1_555
O3 C4 1_555 1_555
O4 C1 1_555 1_555
O5 C1 1_555 1_555
O6 Pb1 1_555 1_555
O7 C6 1_555 1_555
H3 O8 1_555 1_555
O9 C9 1_555 1_555
C11 C5 1_555 1_555
F1 C11 1_555 1_555
F2 C11 1_555 1_555
F3 C11 1_555 1_555
C12 C10 1_555 1_555
F4 C12 1_555 1_555
F5 C12 1_555 1_555
F6 C12 1_555 1_555
H4 O4 1_555 1_555
Pb1_2 O5 1_555 1_555
Pb1B O2 1_555 1_555
Pb1C O9 1_555 1_555
O2B Pb1 1_555 1_555
O5_2 Pb1 1_555 1_555
O9C Pb1 1_555 1_555
C5 N2 1_555 1_555
C6 O6 1_555 1_555
C10 N4 1_555 1_555
Pb1B O2B 1_555 1_555

#END
