
#######################################################################
#
#                 Cambridge Crystallographic Data Centre
#                                CCDC 
#
#######################################################################
#
# If this CIF has been generated from an entry in the Cambridge 
# Structural Database, then it will include bibliographic, chemical, 
# crystal, experimental, refinement or atomic coordinate data resulting 
# from the CCDC's data processing and validation procedures.
#
#######################################################################

data_ZUBFUZ
_symmetry_cell_setting           monoclinic
_symmetry_space_group_name_H-M   'P 21'
_symmetry_Int_Tables_number      4
_space_group_name_Hall           'P 2yb'
loop_
_symmetry_equiv_pos_site_id
_symmetry_equiv_pos_as_xyz
1 x,y,z
2 -x,1/2+y,-z
_cell_length_a                   4.556
_cell_length_b                   14.513
_cell_length_c                   13.040
_cell_angle_alpha                90
_cell_angle_beta                 90.88
_cell_angle_gamma                90
_cell_volume                     862.119
loop_
_atom_site_label
_atom_site_type_symbol
_atom_site_fract_x
_atom_site_fract_y
_atom_site_fract_z
Ba1 Ba -0.10034(6) 0.31252(4) 0.19873(2)
O1 O 0.3998(9) 0.3268(4) 0.3386(3)
H1 H 0.5063 0.3615 0.3865
H2 H 0.5188 0.2724 0.3840
O2 O 0.6110(11) -0.0928(3) -0.1255(4)
O3 O 0.4009(11) 0.1872(4) 0.1782(4)
N1 N 0.8564(13) 0.0837(4) -0.1027(5)
H3 H 0.9219 0.0584 -0.1574
N2 N 0.7924(15) 0.1882(5) 0.0186(5)
O4 O 0.3001(14) -0.0656(4) -0.0008(5)
N3 N 0.3593(15) -0.0397(5) 0.5252(5)
C1 C 0.5200(14) -0.0440(4) -0.0559(5)
F1 F 0.8033(11) -0.1345(3) 0.4229(4)
C2 C 0.4167(15) 0.1163(5) 0.1261(5)
C3 C 0.6586(14) 0.0462(4) -0.0359(5)
F2 F 0.4352(10) -0.1683(5) 0.3296(4)
N4 N 0.2543(13) 0.0353(5) 0.3805(5)
H4 H 0.2566 0.0497 0.3165
O5 O 0.1105(12) -0.0088(4) 0.7215(4)
C4 C 0.5927(18) -0.0996(6) 0.3668(6)
F3 F 0.7153(13) -0.0566(4) 0.2877(4)
C5 C 0.4074(15) -0.0324(5) 0.4271(5)
O6 O -0.1182(13) 0.1787(4) 0.3401(4)
C6 C 0.6215(13) 0.1141(4) 0.0381(5)
C7 C 0.1578(15) 0.0281(5) 0.5452(5)
C8 C 0.0933(14) 0.0768(5) 0.4557(5)
O7 O 0.2539(12) 0.0453(4) 0.1422(4)
F4 F 1.2534(10) 0.2913(3) -0.0598(3)
F5 F 1.3222(9) 0.1911(3) -0.1776(3)
F6 F 0.9588(10) 0.2839(3) -0.1895(3)
O8 O -0.1470(15) 0.1077(4) 0.6618(4)
O9 O -0.2646(15) 0.1864(4) 0.5015(5)
C9 C 0.9282(15) 0.1681(4) -0.0661(5)
C10 C 1.1176(15) 0.2344(5) -0.1242(5)
C11 C -0.1103(17) 0.1533(5) 0.4302(6)
C12 C 0.0351(17) 0.0421(5) 0.6502(5)
H5 H 0.274(17) -0.013(4) 0.074(4)
H6 H -0.215(18) 0.160(3) 0.590(2)
Ba1_2 Ba 0.89966(6) 0.31252(4) 0.19873(2)
Ba1A Ba 0.10034(6) -0.18748(4) -0.19873(2)
Ba1A_2 Ba 0.10034(6) -0.18748(4) 0.80127(2)
Ba1A_3 Ba 1.10034(6) -0.18748(4) -0.19873(2)
O1_2 O -0.6002(9) 0.3268(4) 0.3386(3)
O2A O -0.6110(11) 0.4072(3) 0.1255(4)
O2A_2 O 0.3890(11) 0.4072(3) 0.1255(4)
O3_2 O -0.5991(11) 0.1872(4) 0.1782(4)
N2_2 N -0.2076(15) 0.1882(5) 0.0186(5)
O4A O -0.3001(14) 0.4344(4) 0.0008(5)
O5A O -0.1105(12) 0.4912(4) 0.2785(4)
loop_
_geom_bond_atom_site_label_1
_geom_bond_atom_site_label_2
_geom_bond_site_symmetry_1
_geom_bond_site_symmetry_2
Ba1 O1 1_555 1_555
O1 H1 1_555 1_555
H2 O1 1_555 1_555
O2 C1 1_555 1_555
O3 Ba1 1_555 1_555
N1 H3 1_555 1_555
N2 C6 1_555 1_555
O4 C1 1_555 1_555
N3 C5 1_555 1_555
C1 C3 1_555 1_555
F1 C4 1_555 1_555
C2 O3 1_555 1_555
C3 N1 1_555 1_555
F2 C4 1_555 1_555
N4 H4 1_555 1_555
O5 C12 1_555 1_555
C4 F3 1_555 1_555
C5 N4 1_555 1_555
O6 Ba1 1_555 1_555
C6 C2 1_555 1_555
C7 N3 1_555 1_555
C8 N4 1_555 1_555
O7 C2 1_555 1_555
F4 C10 1_555 1_555
F5 C10 1_555 1_555
F6 C10 1_555 1_555
O8 C12 1_555 1_555
O9 C11 1_555 1_555
C9 N1 1_555 1_555
C10 C9 1_555 1_555
C11 O6 1_555 1_555
C12 C7 1_555 1_555
H5 O7 1_555 1_555
H6 O9 1_555 1_555
Ba1_2 O1 1_555 1_555
Ba1A O2 1_555 1_555
Ba1A_2 O5 1_555 1_555
Ba1A_3 O2 1_555 1_555
O1_2 Ba1 1_555 1_555
O2A Ba1 1_555 1_555
O2A_2 Ba1 1_555 1_555
O3_2 Ba1 1_555 1_555
N2_2 Ba1 1_555 1_555
O4A Ba1 1_555 1_555
O5A Ba1 1_555 1_555
O3 Ba1_2 1_555 1_555
N2 C9 1_555 1_555
N2 Ba1_2 1_555 1_555
O4 Ba1A 1_555 1_555
C3 C6 1_555 1_555
C4 C5 1_555 1_555
C7 C8 1_555 1_555
C8 C11 1_555 1_555
Ba1_2 O2A_2 1_555 1_555

#END
