
#######################################################################
#
#                 Cambridge Crystallographic Data Centre
#                                CCDC 
#
#######################################################################
#
# If this CIF has been generated from an entry in the Cambridge 
# Structural Database, then it will include bibliographic, chemical, 
# crystal, experimental, refinement or atomic coordinate data resulting 
# from the CCDC's data processing and validation procedures.
#
#######################################################################

data_ZUBNER
_symmetry_cell_setting           monoclinic
_symmetry_space_group_name_H-M   'P 21/c'
_symmetry_Int_Tables_number      14
_space_group_name_Hall           '-P 2ybc'
loop_
_symmetry_equiv_pos_site_id
_symmetry_equiv_pos_as_xyz
1 x,y,z
2 -x,1/2+y,1/2-z
3 -x,-y,-z
4 x,1/2-y,1/2+z
_cell_length_a                   13.6720(10)
_cell_length_b                   7.3130(10)
_cell_length_c                   12.4810(10)
_cell_angle_alpha                90
_cell_angle_beta                 94.2960(10)
_cell_angle_gamma                90
_cell_volume                     1244.39
loop_
_atom_site_label
_atom_site_type_symbol
_atom_site_fract_x
_atom_site_fract_y
_atom_site_fract_z
C1 C 0.1823(2) 0.5944(4) 0.3392(2)
C2 C 0.2634(2) 0.6438(4) 0.4251(3)
C3 C 0.2476(2) 0.6254(5) 0.5325(3)
H1 H 0.1873 0.5880 0.5547
C4 C 0.3255(3) 0.6652(6) 0.6053(3)
H2 H 0.3165 0.6585 0.6783
C5 C 0.4213(2) 0.7242(4) 0.4687(3)
C6 C 0.5202(3) 0.7734(5) 0.4344(3)
C7 C 0.5417(3) 0.7767(6) 0.3284(3)
H3 H 0.4938 0.7489 0.2739
C8 C 0.6359(3) 0.8221(7) 0.3043(3)
H4 H 0.6517 0.8278 0.2331
C9 C 0.7060(3) 0.8586(6) 0.3864(3)
H5 H 0.7695 0.8850 0.3692
C10 C 0.5952(2) 0.8172(5) 0.5124(3)
H6 H 0.5809 0.8181 0.5841
C11 C -0.0118(2) 0.5867(4) -0.0343(2)
Dy1 Dy -0.025602(9) 0.740986(16) 0.204388(10)
N1 N 0.34950(19) 0.6959(4) 0.3913(2)
N2 N 0.4134(2) 0.7129(5) 0.5748(3)
N3 N 0.6869(2) 0.8578(4) 0.4889(2)
O1 O 0.14346(17) 0.7188(3) 0.2823(2)
O2 O 0.16153(16) 0.4296(3) 0.3349(2)
O3 O -0.0114(2) 0.7362(3) 0.01360(19)
O4 O 0.04214(15) 1.0211(3) 0.17062(16)
O5 O -0.16653(19) 0.5698(3) 0.1433(3)
O6 O -0.02892(15) 0.5613(3) -0.13427(15)
H7 H -0.222(2) 0.597(5) 0.100(3)
H8 H -0.170(3) 0.448(3) 0.164(3)
H9 H 0.055(3) 1.065(6) 0.106(2)
C11B C 0.0118(2) 0.4133(4) 0.0343(2)
O3B O 0.0114(2) 0.2638(3) -0.01360(19)
O6B O 0.02892(15) 0.4387(3) 0.13427(15)
C1B C -0.1823(2) 0.4056(4) -0.3392(2)
C2B C -0.2634(2) 0.3562(4) -0.4251(3)
C3B C -0.2476(2) 0.3746(5) -0.5325(3)
H1B H -0.1873 0.4120 -0.5547
C4B C -0.3255(3) 0.3348(6) -0.6053(3)
H2B H -0.3165 0.3415 -0.6783
C5B C -0.4213(2) 0.2758(4) -0.4687(3)
C6B C -0.5202(3) 0.2266(5) -0.4344(3)
C7B C -0.5417(3) 0.2233(6) -0.3284(3)
H3B H -0.4938 0.2511 -0.2739
C8B C -0.6359(3) 0.1779(7) -0.3043(3)
H4B H -0.6517 0.1722 -0.2331
C9B C -0.7060(3) 0.1414(6) -0.3864(3)
H5B H -0.7695 0.1150 -0.3692
C10B C -0.5952(2) 0.1828(5) -0.5124(3)
H6B H -0.5809 0.1819 -0.5841
Dy1B Dy 0.025602(9) 0.259014(16) -0.204388(10)
N1B N -0.34950(19) 0.3041(4) -0.3913(2)
N2B N -0.4134(2) 0.2871(5) -0.5748(3)
N3B N -0.6869(2) 0.1422(4) -0.4889(2)
O1B O -0.14346(17) 0.2812(3) -0.2823(2)
O2B O -0.16153(16) 0.5704(3) -0.3349(2)
O4B O -0.04214(15) -0.0211(3) -0.17062(16)
O5B O 0.16653(19) 0.4302(3) -0.1433(3)
H7B H 0.222(2) 0.403(5) -0.100(3)
H8B H 0.170(3) 0.552(3) -0.164(3)
H9B H -0.055(3) -0.065(6) -0.106(2)
Dy1A Dy 0.025602(9) 0.240986(16) 0.295612(10)
Dy1A_2 Dy 0.025602(9) 1.240986(16) 0.295612(10)
Dy1C Dy -0.025602(9) -0.240986(16) -0.295612(10)
Dy1C_2 Dy -0.025602(9) 0.759014(16) -0.295612(10)
O2A O -0.16153(16) 0.9296(3) 0.1651(2)
O2C O 0.16153(16) 0.0704(3) -0.1651(2)
O4A O -0.04214(15) 0.5211(3) 0.32938(16)
O4C O 0.04214(15) 0.4789(3) -0.32938(16)
O6A O 0.02892(15) 0.0613(3) -0.36573(15)
O6C O -0.02892(15) 0.9387(3) 0.36573(15)
loop_
_geom_bond_atom_site_label_1
_geom_bond_atom_site_label_2
_geom_bond_site_symmetry_1
_geom_bond_site_symmetry_2
C1 C2 1_555 1_555
C2 C3 1_555 1_555
C3 H1 1_555 1_555
C4 C3 1_555 1_555
H2 C4 1_555 1_555
C5 C6 1_555 1_555
C6 C7 1_555 1_555
C7 H3 1_555 1_555
C8 C7 1_555 1_555
H4 C8 1_555 1_555
C9 C8 1_555 1_555
H5 C9 1_555 1_555
C10 C6 1_555 1_555
H6 C10 1_555 1_555
C11 O3 1_555 1_555
Dy1 O1 1_555 1_555
N1 C2 1_555 1_555
N2 C4 1_555 1_555
N3 C9 1_555 1_555
O1 C1 1_555 1_555
O2 C1 1_555 1_555
O3 Dy1 1_555 1_555
O4 Dy1 1_555 1_555
O5 Dy1 1_555 1_555
O6 C11 1_555 1_555
H7 O5 1_555 1_555
H8 O5 1_555 1_555
H9 O4 1_555 1_555
C11B C11 1_555 1_555
O3B C11B 1_555 1_555
O6B Dy1 1_555 1_555
C1B C2B 1_555 1_555
C2B C3B 1_555 1_555
C3B H1B 1_555 1_555
C4B C3B 1_555 1_555
H2B C4B 1_555 1_555
C5B C6B 1_555 1_555
C6B C7B 1_555 1_555
C7B H3B 1_555 1_555
C8B C7B 1_555 1_555
H4B C8B 1_555 1_555
C9B C8B 1_555 1_555
H5B C9B 1_555 1_555
C10B C6B 1_555 1_555
H6B C10B 1_555 1_555
Dy1B O6 1_555 1_555
N1B C2B 1_555 1_555
N2B C4B 1_555 1_555
N3B C9B 1_555 1_555
O1B C1B 1_555 1_555
O2B C1B 1_555 1_555
O4B Dy1B 1_555 1_555
O5B Dy1B 1_555 1_555
H7B O5B 1_555 1_555
H8B O5B 1_555 1_555
H9B O4B 1_555 1_555
Dy1A O2 1_555 1_555
Dy1A_2 O4 1_555 1_555
Dy1C O4B 1_555 1_555
Dy1C_2 O6 1_555 1_555
O2A Dy1 1_555 1_555
O2C Dy1B 1_555 1_555
O4A Dy1 1_555 1_555
O4C Dy1B 1_555 1_555
O6A Dy1B 1_555 1_555
O6C Dy1 1_555 1_555
C5 N1 1_555 1_555
C5 N2 1_555 1_555
C10 N3 1_555 1_555
C11B O6B 1_555 1_555
O3B Dy1B 1_555 1_555
O6B Dy1A 1_555 1_555
C5B N1B 1_555 1_555
C5B N2B 1_555 1_555
C10B N3B 1_555 1_555
Dy1B O1B 1_555 1_555
O2B Dy1C_2 1_555 1_555
Dy1A O4A 1_555 1_555
Dy1A_2 O6C 1_555 1_555
Dy1C O6A 1_555 1_555
Dy1C_2 O4C 1_555 1_555

#END
