
#######################################################################
#
#                 Cambridge Crystallographic Data Centre
#                                CCDC 
#
#######################################################################
#
# If this CIF has been generated from an entry in the Cambridge 
# Structural Database, then it will include bibliographic, chemical, 
# crystal, experimental, refinement or atomic coordinate data resulting 
# from the CCDC's data processing and validation procedures.
#
#######################################################################

data_ZUBPIX
_symmetry_cell_setting           triclinic
_symmetry_space_group_name_H-M   'P -1'
_symmetry_Int_Tables_number      2
_space_group_name_Hall           '-P 1'
loop_
_symmetry_equiv_pos_site_id
_symmetry_equiv_pos_as_xyz
1 x,y,z
2 -x,-y,-z
_cell_length_a                   12.1224(15)
_cell_length_b                   13.4764(15)
_cell_length_c                   14.2227(17)
_cell_angle_alpha                105.086(2)
_cell_angle_beta                 111.688(2)
_cell_angle_gamma                105.602(2)
_cell_volume                     1904.17
loop_
_atom_site_label
_atom_site_type_symbol
_atom_site_fract_x
_atom_site_fract_y
_atom_site_fract_z
P1 P -1.0000 0.0000 -0.5000
O2 O -0.8787(9) 0.0893(8) -0.4664(8)
O3 O -1.0796(10) 0.0526(8) -0.4463(8)
O4 O -1.0936(10) -0.0504(8) -0.6253(8)
O5 O -1.0088(10) 0.0954(8) -0.5352(8)
O6 O -0.9727(6) 0.2080(5) -0.1252(5)
O7 O -0.8150(7) -0.3038(6) -0.5362(6)
O8 O -1.0359(7) -0.2882(7) -0.5343(6)
O9 O -1.2323(10) -0.3798(6) -0.4897(7)
O10 O -1.3543(7) -0.1289(6) -0.6205(5)
O11 O -1.2897(9) -0.0704(6) -0.7632(8)
O12 O -1.4169(8) -0.0752(8) -0.4540(7)
O13 O -1.0204(7) -0.1797(7) -0.3465(6)
O14 O -1.1945(10) -0.2260(6) -0.7812(9)
O15 O -0.8092(7) -0.1401(7) -0.3713(6)
O16 O -1.2463(7) -0.1737(6) -0.4485(5)
O17 O -1.2611(10) 0.0851(7) -0.4905(7)
O18 O -0.9217(9) 0.0337(6) -0.2169(9)
O19 O -1.2647(7) -0.2841(6) -0.6400(5)
O20 O -1.0321(9) 0.2316(6) -0.3245(7)
O21 O -1.1516(9) 0.0378(6) -0.3212(7)
O22 O -0.7872(6) -0.0963(6) -0.1633(6)
O23 O -1.4488(7) -0.2924(5) -0.8285(5)
Mo1 Mo -0.87640(11) -0.20788(8) -0.52807(8)
Mo2 Mo -1.28653(9) -0.05243(8) -0.47021(8)
Mo3 Mo -0.98066(11) 0.14459(7) -0.24420(7)
Mo4 Mo -1.16052(8) -0.26106(7) -0.49566(7)
Mo5 Mo -0.85529(9) -0.06645(7) -0.27075(7)
Mo6 Mo -1.30509(8) -0.19698(6) -0.72745(7)
O2A O -1.1213(9) -0.0893(8) -0.5336(8)
O3A O -0.9204(10) -0.0526(8) -0.5537(8)
O4A O -0.9064(10) 0.0504(8) -0.3747(8)
O5A O -0.9912(10) -0.0954(8) -0.4648(8)
O6A O -1.0273(6) -0.2080(5) -0.8748(5)
O7A O -1.1850(7) 0.3038(6) -0.4638(6)
O8A O -0.9641(7) 0.2882(7) -0.4657(6)
O9A O -0.7677(10) 0.3798(6) -0.5103(7)
O10A O -0.6457(7) 0.1289(6) -0.3795(5)
O11A O -0.7103(9) 0.0704(6) -0.2368(8)
O12A O -0.5831(8) 0.0752(8) -0.5460(7)
O13A O -0.9796(7) 0.1797(7) -0.6535(6)
O14A O -0.8055(10) 0.2260(6) -0.2188(9)
O15A O -1.1908(7) 0.1401(7) -0.6287(6)
O16A O -0.7537(7) 0.1737(6) -0.5515(5)
O17A O -0.7389(10) -0.0851(7) -0.5095(7)
O18A O -1.0783(9) -0.0337(6) -0.7831(9)
O19A O -0.7353(7) 0.2841(6) -0.3600(5)
O20A O -0.9679(9) -0.2316(6) -0.6755(7)
O21A O -0.8484(9) -0.0378(6) -0.6788(7)
O22A O -1.2128(6) 0.0963(6) -0.8367(6)
O23A O -0.5512(7) 0.2924(5) -0.1715(5)
Mo1A Mo -1.12360(11) 0.20788(8) -0.47193(8)
Mo2A Mo -0.71347(9) 0.05243(8) -0.52979(8)
Mo3A Mo -1.01934(11) -0.14459(7) -0.75580(7)
Mo4A Mo -0.83948(8) 0.26106(7) -0.50434(7)
Mo5A Mo -1.14471(9) 0.06645(7) -0.72925(7)
Mo6A Mo -0.69491(8) 0.19698(6) -0.27255(7)
O24 O -0.4924(7) 0.0127(6) 0.2331(6)
O25 O -0.4694(13) 0.2206(9) 0.3536(9)
O26 O -0.5430(14) 0.3908(13) 0.3848(10)
Cu1 Cu -0.46761(10) 0.44966(8) 0.12578(8)
O1 O -0.5069(7) 0.4933(6) 0.2523(5)
N1 N -0.2974(7) 0.4540(5) 0.2232(6)
N2 N -0.3624(6) 0.5138(5) 0.0590(5)
N3 N -0.3734(6) 0.5430(5) -0.0259(5)
N4 N -0.2651(7) 0.5636(6) -0.0327(6)
N5 N -0.1798(7) 0.5482(6) 0.0491(6)
N6 N -0.7384(7) 0.0390(5) 0.0808(6)
N7 N -0.5224(6) 0.2631(5) 0.0527(6)
N8 N -0.4342(6) 0.2393(5) 0.0266(5)
N9 N -0.4503(6) 0.1350(5) 0.0129(5)
N10 N -0.5510(6) 0.0878(5) 0.0294(5)
N11 N -0.8600(6) -0.4613(5) 0.1519(6)
N12 N -0.8822(7) -0.3442(5) 0.0273(6)
N13 N -0.8645(7) -0.2743(6) -0.0229(6)
N14 N -0.7546(7) -0.1896(5) 0.0470(6)
N15 N -0.6979(7) -0.1987(6) 0.1439(6)
C1 C -0.2421(8) 0.5199(6) 0.1046(7)
C2 C -0.2014(8) 0.4902(6) 0.1990(7)
C3 C -0.0790(9) 0.4937(8) 0.2563(8)
H1 H -0.0123 0.5244 0.2412
C4 C -0.0581(10) 0.4511(8) 0.3357(8)
H2 H 0.0219 0.4487 0.3726
C5 C -0.1559(10) 0.4119(8) 0.3601(8)
H3 H -0.1427 0.3823 0.4135
C6 C -0.2736(10) 0.4161(8) 0.3061(8)
H4 H -0.3380 0.3930 0.3260
C7 C -0.5944(7) 0.1674(6) 0.0531(6)
C8 C -0.6999(8) 0.1430(6) 0.0792(7)
C9 C -0.7589(9) 0.2136(7) 0.1004(8)
H5 H -0.7358 0.2817 0.0931
C10 C -0.8523(12) 0.1832(9) 0.1327(11)
H6 H -0.8929 0.2301 0.1479
C11 C -0.8838(13) 0.0819(9) 0.1418(13)
H7 H -0.9425 0.0613 0.1680
C12 C -0.8278(11) 0.0097(8) 0.1120(11)
H8 H -0.8541 -0.0609 0.1140
C13 C -0.7800(8) -0.2961(6) 0.1281(7)
C14 C -0.7644(8) -0.3555(7) 0.2001(7)
C15 C -0.6617(10) -0.3154(8) 0.3034(8)
H9 H -0.5988 -0.2423 0.3354
C16 C -0.6531(10) -0.3837(9) 0.3585(9)
H10 H -0.5831 -0.3584 0.4282
C17 C -0.7495(10) -0.4917(9) 0.3101(9)
H11 H -0.7451 -0.5388 0.3477
C18 C -0.8517(9) -0.5288(7) 0.2063(8)
H12 H -0.9155 -0.6016 0.1735
Cu2 Cu -0.64921(10) -0.05573(7) 0.03305(9)
Cu3 Cu -1.0000 -0.5000 0.0000
Cu1A Cu -1.53239(10) -1.44966(8) -0.12578(8)
O1A O -1.4931(7) -1.4933(6) -0.2523(5)
N1A N -1.7026(7) -1.4540(5) -0.2232(6)
N2A N -1.6376(6) -1.5138(5) -0.0590(5)
N3A N -1.6266(6) -1.5430(5) 0.0259(5)
N4A N -1.7349(7) -1.5636(6) 0.0327(6)
N5A N -1.8202(7) -1.5482(6) -0.0491(6)
N6A N -1.2616(7) -1.0390(5) -0.0808(6)
N7A N -1.4776(6) -1.2631(5) -0.0527(6)
N8A N -1.5658(6) -1.2393(5) -0.0266(5)
N9A N -1.5497(6) -1.1350(5) -0.0129(5)
N10A N -1.4490(6) -1.0878(5) -0.0294(5)
N11A N -1.1400(6) -0.5387(5) -0.1519(6)
N12A N -1.1178(7) -0.6558(5) -0.0273(6)
N13A N -1.1355(7) -0.7257(6) 0.0229(6)
N14A N -1.2454(7) -0.8104(5) -0.0470(6)
N15A N -1.3021(7) -0.8013(6) -0.1439(6)
C1A C -1.7579(8) -1.5199(6) -0.1046(7)
C2A C -1.7986(8) -1.4902(6) -0.1990(7)
C3A C -1.9210(9) -1.4937(8) -0.2563(8)
H1A H -1.9877 -1.5244 -0.2412
C4A C -1.9419(10) -1.4511(8) -0.3357(8)
H2A H -2.0219 -1.4487 -0.3726
C5A C -1.8441(10) -1.4119(8) -0.3601(8)
H3A H -1.8573 -1.3823 -0.4135
C6A C -1.7264(10) -1.4161(8) -0.3061(8)
H4A H -1.6620 -1.3930 -0.3260
C7A C -1.4056(7) -1.1674(6) -0.0531(6)
C8A C -1.3001(8) -1.1430(6) -0.0792(7)
C9A C -1.2411(9) -1.2136(7) -0.1004(8)
H5A H -1.2642 -1.2817 -0.0931
C10A C -1.1477(12) -1.1832(9) -0.1327(11)
H6A H -1.1071 -1.2301 -0.1479
C11A C -1.1162(13) -1.0819(9) -0.1418(13)
H7A H -1.0575 -1.0613 -0.1680
C12A C -1.1722(11) -1.0097(8) -0.1120(11)
H8A H -1.1459 -0.9391 -0.1140
C13A C -1.2200(8) -0.7039(6) -0.1281(7)
C14A C -1.2356(8) -0.6445(7) -0.2001(7)
C15A C -1.3383(10) -0.6846(8) -0.3034(8)
H9A H -1.4012 -0.7577 -0.3354
C16A C -1.3469(10) -0.6163(9) -0.3585(9)
H10A H -1.4169 -0.6416 -0.4282
C17A C -1.2505(10) -0.5083(9) -0.3101(9)
H11A H -1.2549 -0.4612 -0.3477
C18A C -1.1483(9) -0.4712(7) -0.2063(8)
H12A H -1.0845 -0.3984 -0.1735
Cu2A Cu -1.35079(10) -0.94427(7) -0.03305(9)
Cu1_2 Cu -1.46761(10) -1.55034(8) 0.12578(8)
Cu1A_2 Cu -0.53239(10) 0.55034(8) -0.12578(8)
N3_2 N -1.3734(6) -1.4570(5) -0.0259(5)
N3A_2 N -0.6266(6) 0.4570(5) 0.0259(5)
N5_2 N -1.1798(7) -0.4518(6) 0.0491(6)
N5A_2 N -0.8202(7) -0.5482(6) -0.0491(6)
N9_2 N -1.4503(6) -0.8650(5) 0.0129(5)
N9A_2 N -0.5497(6) -0.1350(5) -0.0129(5)
Cu2_2 Cu -1.64921(10) -1.05573(7) 0.03305(9)
Cu2A_2 Cu -0.35079(10) 0.05573(7) -0.03305(9)
Cu3_2 Cu -2.0000 -1.5000 0.0000
Cu3_3 Cu 0.0000 0.5000 0.0000
loop_
_geom_bond_atom_site_label_1
_geom_bond_atom_site_label_2
_geom_bond_site_symmetry_1
_geom_bond_site_symmetry_2
Cu1 O1 1_555 1_555
N1 Cu1 1_555 1_555
N2 Cu1 1_555 1_555
N3 N2 1_555 1_555
N4 N3 1_555 1_555
N5 N4 1_555 1_555
N6 C8 1_555 1_555
N7 Cu1 1_555 1_555
N8 N7 1_555 1_555
N9 N8 1_555 1_555
N10 N9 1_555 1_555
N11 C14 1_555 1_555
N12 N13 1_555 1_555
N13 N14 1_555 1_555
N14 N15 1_555 1_555
N15 C13 1_555 1_555
C1 N2 1_555 1_555
C2 N1 1_555 1_555
C3 C2 1_555 1_555
H1 C3 1_555 1_555
C4 C3 1_555 1_555
H2 C4 1_555 1_555
C5 C4 1_555 1_555
H3 C5 1_555 1_555
C6 N1 1_555 1_555
H4 C6 1_555 1_555
C7 N7 1_555 1_555
C8 C7 1_555 1_555
C9 C8 1_555 1_555
H5 C9 1_555 1_555
C10 C9 1_555 1_555
H6 C10 1_555 1_555
C11 C10 1_555 1_555
H7 C11 1_555 1_555
C12 N6 1_555 1_555
H8 C12 1_555 1_555
C13 N12 1_555 1_555
C14 C13 1_555 1_555
C15 C14 1_555 1_555
H9 C15 1_555 1_555
C16 C15 1_555 1_555
H10 C16 1_555 1_555
C17 C16 1_555 1_555
H11 C17 1_555 1_555
C18 N11 1_555 1_555
H12 C18 1_555 1_555
Cu2 N6 1_555 1_555
Cu3 N11 1_555 1_555
P1 O2 1_555 1_555
O2 O5 1_555 1_555
O3 P1 1_555 1_555
O4 P1 1_555 1_555
O5 P1 1_555 1_555
O6 Mo3 1_555 1_555
O7 Mo1 1_555 1_555
O8 Mo1 1_555 1_555
O9 Mo4 1_555 1_555
O10 Mo2 1_555 1_555
O11 Mo6 1_555 1_555
O12 Mo2 1_555 1_555
O13 Mo4 1_555 1_555
O14 Mo6 1_555 1_555
O15 Mo1 1_555 1_555
O16 Mo2 1_555 1_555
O17 Mo2 1_555 1_555
O18 Mo3 1_555 1_555
O19 Mo4 1_555 1_555
O20 Mo3 1_555 1_555
O21 Mo2 1_555 1_555
O22 Mo5 1_555 1_555
O23 Mo6 1_555 1_555
Mo1 O3A 1_555 1_555
Mo2 O3 1_555 1_555
Mo3 O3 1_555 1_555
Mo4 O8 1_555 1_555
Mo5 O13 1_555 1_555
Mo6 O4 1_555 1_555
Cu1A O1A 1_555 1_555
N1A Cu1A 1_555 1_555
N2A Cu1A 1_555 1_555
N3A N2A 1_555 1_555
N4A N3A 1_555 1_555
N5A N4A 1_555 1_555
N6A C8A 1_555 1_555
N7A Cu1A 1_555 1_555
N8A N7A 1_555 1_555
N9A N8A 1_555 1_555
N10A N9A 1_555 1_555
N11A Cu3 1_555 1_555
N12A Cu3 1_555 1_555
N13A N12A 1_555 1_555
N14A N13A 1_555 1_555
N15A N14A 1_555 1_555
C1A N2A 1_555 1_555
C2A N1A 1_555 1_555
C3A C2A 1_555 1_555
H1A C3A 1_555 1_555
C4A C3A 1_555 1_555
H2A C4A 1_555 1_555
C5A C4A 1_555 1_555
H3A C5A 1_555 1_555
C6A N1A 1_555 1_555
H4A C6A 1_555 1_555
C7A N7A 1_555 1_555
C8A C7A 1_555 1_555
C9A C8A 1_555 1_555
H5A C9A 1_555 1_555
C10A C9A 1_555 1_555
H6A C10A 1_555 1_555
C11A C10A 1_555 1_555
H7A C11A 1_555 1_555
C12A N6A 1_555 1_555
H8A C12A 1_555 1_555
C13A N12A 1_555 1_555
C14A N11A 1_555 1_555
C15A C14A 1_555 1_555
H9A C15A 1_555 1_555
C16A C15A 1_555 1_555
H10A C16A 1_555 1_555
C17A C16A 1_555 1_555
H11A C17A 1_555 1_555
C18A N11A 1_555 1_555
H12A C18A 1_555 1_555
Cu2A N6A 1_555 1_555
Cu1_2 N3A 1_555 1_555
Cu1A_2 N3 1_555 1_555
N3_2 Cu1A 1_555 1_555
N3A_2 Cu1 1_555 1_555
N5_2 Cu3 1_555 1_555
N5A_2 Cu3 1_555 1_555
N9_2 Cu2A 1_555 1_555
N9A_2 Cu2 1_555 1_555
Cu2_2 N9A 1_555 1_555
Cu2A_2 N9 1_555 1_555
Cu3_2 N5A 1_555 1_555
Cu3_3 N5 1_555 1_555
O2A P1 1_555 1_555
O3A P1 1_555 1_555
O4A P1 1_555 1_555
O5A P1 1_555 1_555
O6A Mo3A 1_555 1_555
O7A Mo1A 1_555 1_555
O8A Mo1A 1_555 1_555
O9A Mo4A 1_555 1_555
O10A Mo2A 1_555 1_555
O11A Mo5 1_555 1_555
O12A Mo2A 1_555 1_555
O13A Mo4A 1_555 1_555
O14A Mo3 1_555 1_555
O15A Mo1A 1_555 1_555
O16A Mo2A 1_555 1_555
O17A Mo1 1_555 1_555
O18A Mo3A 1_555 1_555
O19A Mo4A 1_555 1_555
O20A Mo1 1_555 1_555
O21A Mo2A 1_555 1_555
O22A Mo5A 1_555 1_555
O23A Mo6A 1_555 1_555
Mo1A O3 1_555 1_555
Mo2A O2 1_555 1_555
Mo3A O4 1_555 1_555
Mo4A O2 1_555 1_555
Mo5A O4 1_555 1_555
Mo6A O2 1_555 1_555
N5 C1 1_555 1_555
N10 C7 1_555 1_555
N10 Cu2 1_555 1_555
N12 Cu3 1_555 1_555
N14 Cu2 1_555 1_555
C1 C2 1_555 1_555
C5 C6 1_555 1_555
C11 C12 1_555 1_555
C17 C18 1_555 1_555
O2 O3A 1_555 1_555
O2 O4A 1_555 1_555
O3 O2A 1_555 1_555
O4 O5 1_555 1_555
O4 O2A 1_555 1_555
O5 Mo1A 1_555 1_555
O5 Mo4A 1_555 1_555
O5 Mo5A 1_555 1_555
O10 Mo6 1_555 1_555
O11 Mo5A 1_555 1_555
O14 Mo3A 1_555 1_555
O15 Mo5 1_555 1_555
O16 Mo4 1_555 1_555
O17 Mo1A 1_555 1_555
O18 Mo5 1_555 1_555
O19 Mo6 1_555 1_555
O20 Mo1A 1_555 1_555
O21 Mo3 1_555 1_555
Mo1 O5A 1_555 1_555
Mo2 O2A 1_555 1_555
Mo3 O4A 1_555 1_555
Mo4 O2A 1_555 1_555
Mo4 O5A 1_555 1_555
Mo5 O4A 1_555 1_555
Mo5 O5A 1_555 1_555
Mo6 O2A 1_555 1_555
N5A C1A 1_555 1_555
N10A C7A 1_555 1_555
N10A Cu2A 1_555 1_555
N14A Cu2A 1_555 1_555
N15A C13A 1_555 1_555
C1A C2A 1_555 1_555
C5A C6A 1_555 1_555
C11A C12A 1_555 1_555
C13A C14A 1_555 1_555
C17A C18A 1_555 1_555
O2A O5A 1_555 1_555
O3A Mo2A 1_555 1_555
O3A Mo3A 1_555 1_555
O4A O5A 1_555 1_555
O4A Mo6A 1_555 1_555
O8A Mo4A 1_555 1_555
O10A Mo6A 1_555 1_555
O11A Mo6A 1_555 1_555
O13A Mo5A 1_555 1_555
O14A Mo6A 1_555 1_555
O15A Mo5A 1_555 1_555
O16A Mo4A 1_555 1_555
O17A Mo2A 1_555 1_555
O18A Mo5A 1_555 1_555
O19A Mo6A 1_555 1_555
O20A Mo3A 1_555 1_555
O21A Mo3A 1_555 1_555

#END
