
#######################################################################
#
#                 Cambridge Crystallographic Data Centre
#                                CCDC 
#
#######################################################################
#
# If this CIF has been generated from an entry in the Cambridge 
# Structural Database, then it will include bibliographic, chemical, 
# crystal, experimental, refinement or atomic coordinate data resulting 
# from the CCDC's data processing and validation procedures.
#
#######################################################################

data_ZUCTIC
_symmetry_cell_setting           monoclinic
_symmetry_space_group_name_H-M   'C 2/c'
_symmetry_Int_Tables_number      15
_space_group_name_Hall           '-C 2yn'
loop_
_symmetry_equiv_pos_site_id
_symmetry_equiv_pos_as_xyz
1 x,y,z
2 -x,y,1/2-z
3 1/2+x,1/2+y,z
4 1/2-x,1/2+y,1/2-z
5 -x,-y,-z
6 x,-y,1/2+z
7 1/2-x,1/2-y,-z
8 1/2+x,1/2-y,1/2+z
_cell_length_a                   11.630(2)
_cell_length_b                   11.447(2)
_cell_length_c                   12.527(3)
_cell_angle_alpha                90
_cell_angle_beta                 114.51(3)
_cell_angle_gamma                90
_cell_volume                     1517.42
loop_
_atom_site_label
_atom_site_type_symbol
_atom_site_fract_x
_atom_site_fract_y
_atom_site_fract_z
Cu1 Cu 0.0000 -0.01354(10) 0.2500
O1 O 0.0724(5) 0.1059(4) 0.3685(4)
O2 O 0.2388(5) 0.0758(5) 0.3274(5)
C1 C 0.1825(9) 0.1274(7) 0.3770(7)
C2 C 0.2638(9) 0.2298(8) 0.4566(6)
H1 H 0.3543 0.2129 0.4851
Br1 Br 0.21432(9) 0.37563(7) 0.34531(6)
N1 N 0.0484(5) -0.1451(5) 0.3623(4)
C3 C 0.0970(6) -0.1361(6) 0.4816(6)
H2 H 0.1111 -0.0623 0.5156
C4 C 0.1256(6) -0.2322(7) 0.5529(6)
H3 H 0.1593 -0.2225 0.6338
C5 C 0.1057(7) -0.3395(8) 0.5077(7)
H4 H 0.1274 -0.4048 0.5562
C6 C 0.0503(7) -0.3522(6) 0.3826(6)
H5 H 0.0301 -0.4254 0.3474
C7 C 0.0283(6) -0.2521(6) 0.3171(5)
O1F O 0.4276(5) 0.3941(4) 0.6315(4)
O2F O 0.2612(5) 0.4242(5) 0.6726(5)
C1F C 0.3175(9) 0.3726(7) 0.6230(7)
C2F C 0.2362(9) 0.2702(8) 0.5434(6)
H1F H 0.1457 0.2871 0.5149
Br1F Br 0.28568(9) 0.12437(7) 0.65469(6)
N1A N -0.0484(5) -0.1451(5) 0.1377(4)
C3A C -0.0970(6) -0.1361(6) 0.0184(6)
H2A H -0.1111 -0.0623 -0.0156
C4A C -0.1256(6) -0.2322(7) -0.0529(6)
H3A H -0.1593 -0.2225 -0.1338
C5A C -0.1057(7) -0.3395(8) -0.0077(7)
H4A H -0.1274 -0.4048 -0.0562
C6A C -0.0503(7) -0.3522(6) 0.1174(6)
H5A H -0.0301 -0.4254 0.1526
C7A C -0.0283(6) -0.2521(6) 0.1829(5)
Cu1F Cu 0.5000 0.51354(10) 0.7500
O1A O -0.0724(5) 0.1059(4) 0.1315(4)
O2A O -0.2388(5) 0.0758(5) 0.1726(5)
loop_
_geom_bond_atom_site_label_1
_geom_bond_atom_site_label_2
_geom_bond_site_symmetry_1
_geom_bond_site_symmetry_2
Cu1 O1 1_555 1_555
O1 C1 1_555 1_555
O2 Cu1 1_555 1_555
C1 O2 1_555 1_555
C2 C1 1_555 1_555
H1 C2 1_555 1_555
Br1 C2 1_555 1_555
N1 Cu1 1_555 1_555
C3 N1 1_555 1_555
H2 C3 1_555 1_555
C4 C3 1_555 1_555
H3 C4 1_555 1_555
C5 C4 1_555 1_555
H4 C5 1_555 1_555
C6 C5 1_555 1_555
H5 C6 1_555 1_555
C7 N1 1_555 1_555
O1F C1F 1_555 1_555
O2F C1F 1_555 1_555
C1F C2F 1_555 1_555
C2F C2 1_555 1_555
H1F C2F 1_555 1_555
Br1F C2F 1_555 1_555
N1A Cu1 1_555 1_555
C3A N1A 1_555 1_555
H2A C3A 1_555 1_555
C4A C3A 1_555 1_555
H3A C4A 1_555 1_555
C5A C4A 1_555 1_555
H4A C5A 1_555 1_555
C6A C5A 1_555 1_555
H5A C6A 1_555 1_555
C7A C7 1_555 1_555
Cu1F O1F 1_555 1_555
O1A Cu1 1_555 1_555
O2A Cu1 1_555 1_555
C6 C7 1_555 1_555
O2F Cu1F 1_555 1_555
N1A C7A 1_555 1_555
C6A C7A 1_555 1_555

#END
