
#######################################################################
#
#                 Cambridge Crystallographic Data Centre
#                                CCDC 
#
#######################################################################
#
# If this CIF has been generated from an entry in the Cambridge 
# Structural Database, then it will include bibliographic, chemical, 
# crystal, experimental, refinement or atomic coordinate data resulting 
# from the CCDC's data processing and validation procedures.
#
#######################################################################

data_ZUDHOX
_symmetry_cell_setting           monoclinic
_symmetry_space_group_name_H-M   'P 21'
_symmetry_Int_Tables_number      4
_space_group_name_Hall           'P 2yb'
loop_
_symmetry_equiv_pos_site_id
_symmetry_equiv_pos_as_xyz
1 x,y,z
2 -x,1/2+y,-z
_cell_length_a                   9.6398(15)
_cell_length_b                   17.688(3)
_cell_length_c                   10.5316(17)
_cell_angle_alpha                90
_cell_angle_beta                 102.232(3)
_cell_angle_gamma                90
_cell_volume                     1754.96
loop_
_atom_site_label
_atom_site_type_symbol
_atom_site_fract_x
_atom_site_fract_y
_atom_site_fract_z
Rb1 Rb 0.45553(4) 0.63230(2) -0.03318(4)
Mn1 Mn 0.80486(6) 0.72253(3) -0.09093(6)
O1 O 0.6120(3) 0.74180(16) -0.1575(3)
C1 C 0.5506(4) 0.7797(3) -0.2647(4)
C2 C 0.4055(4) 0.7941(2) -0.2844(4)
H1 H 0.3546 0.7762 -0.2225
C3 C 0.3336(5) 0.8334(3) -0.3913(4)
H2 H 0.235 0.8433 -0.4013
C4 C 0.4064(5) 0.8589(3) -0.4849(4)
H3 H 0.3576 0.8857 -0.5592
C5 C 0.5485(5) 0.8447(2) -0.4685(4)
H4 H 0.597 0.8616 -0.5329
C6 C 0.6261(4) 0.8055(2) -0.3581(4)
C7 C 0.7809(5) 0.7973(3) -0.3470(4)
O2 O 0.8348(3) 0.82040(19) -0.4391(3)
N1 N 0.8613(3) 0.7699(2) -0.2381(3)
C8 C 1.0143(4) 0.7725(3) -0.2271(5)
H5 H 1.0495 0.8234 -0.1971
H6 H 1.0357 0.7641 -0.3138
C9 C 1.0921(4) 0.7136(3) -0.1331(4)
H7 H 1.1233 0.6717 -0.1826
H8 H 1.1776 0.7367 -0.0779
N2 N 0.9998(4) 0.68386(19) -0.0505(3)
C10 C 1.0537(4) 0.6272(3) 0.0271(4)
O3 O 1.1814(3) 0.60467(17) 0.0313(3)
C11 C 0.9693(4) 0.5896(2) 0.1103(4)
C12 C 1.0315(4) 0.5288(3) 0.1867(4)
H9 H 1.1225 0.5119 0.1777
C13 C 0.9666(5) 0.4923(3) 0.2746(4)
H10 H 1.0119 0.4512 0.325
C14 C 0.8336(5) 0.5172(2) 0.2873(4)
H11 H 0.7888 0.4944 0.3498
C15 C 0.7657(4) 0.5751(2) 0.2094(4)
H12 H 0.674 0.591 0.2181
C16 C 0.8305(4) 0.6106(2) 0.1181(4)
O4 O 0.7559(3) 0.66439(17) 0.0441(3)
Rb2 Rb 0.76174(4) 0.77018(2) 0.29664(3)
Mn2 Mn 0.42277(6) 0.67988(3) 0.36406(5)
O5 O 0.6154(3) 0.66110(16) 0.4264(2)
C17 C 0.6799(4) 0.6243(2) 0.5340(4)
C18 C 0.8277(4) 0.6141(2) 0.5527(4)
H13 H 0.8768 0.6338 0.4907
C19 C 0.9018(5) 0.5761(3) 0.6591(4)
H14 H 1.0014 0.5695 0.6693
C20 C 0.8333(5) 0.5470(3) 0.7523(4)
H15 H 0.885 0.521 0.8263
C21 C 0.6880(5) 0.5570(3) 0.7344(4)
H16 H 0.6403 0.5364 0.7968
C22 C 0.6088(4) 0.5961(2) 0.6279(4)
C23 C 0.4533(5) 0.6008(2) 0.6179(4)
O6 O 0.4022(3) 0.57510(18) 0.7094(3)
N3 N 0.3710(3) 0.6333(2) 0.5126(3)
C24 C 0.2175(4) 0.6294(3) 0.5060(4)
H17 H 0.1987 0.6376 0.5938
H18 H 0.1825 0.5784 0.4765
C25 C 0.1387(4) 0.6879(3) 0.4141(4)
H19 H 0.0519 0.665 0.3608
H20 H 0.1096 0.7301 0.4645
N4 N 0.2289(4) 0.7172(2) 0.3286(3)
C26 C 0.1711(4) 0.7734(3) 0.2510(4)
O7 O 0.0470(3) 0.79667(17) 0.2476(3)
C27 C 0.2565(4) 0.8127(3) 0.1669(4)
C28 C 0.1933(5) 0.8741(2) 0.0941(4)
H21 H 0.1005 0.8892 0.1008
C29 C 0.2620(5) 0.9137(3) 0.0123(4)
H22 H 0.2178 0.9564 -0.0339
C30 C 0.3946(5) 0.8910(3) -0.0020(4)
H23 H 0.4416 0.9174 -0.0592
C31 C 0.4589(5) 0.8292(2) 0.0678(4)
H24 H 0.5493 0.8128 0.0563
C32 C 0.3927(5) 0.7905(2) 0.1551(4)
O8 O 0.4648(3) 0.73260(17) 0.2215(3)
O9 O 1.0007(4) 0.90571(19) 0.4361(3)
O10 O 0.8400(3) 0.81976(19) 0.0383(3)
O11 O 0.3902(3) 0.57887(18) 0.2374(3)
C33 C 0.4113(5) 0.5038(2) 0.2934(4)
H25 H 0.3917 0.466 0.2239
H26 H 0.3468 0.4961 0.3527
H27 H 0.5097 0.4986 0.3414
H28 H 0.9691 0.871 0.4994
H29 H 1.0068 0.874 0.3645
H30 H 0.820(5) 0.8680(14) 0.014(5)
H31 H 0.914(6) 0.816(3) 0.100(5)
H32 H 0.306(5) 0.576(3) 0.188(5)
O12 O 0.7355(4) 0.9394(2) 0.2857(3)
H33 H 0.804(6) 0.937(3) 0.347(5)
H34 H 0.701(5) 0.9811(16) 0.297(5)
Rb1_2 Rb 0.45553(4) 0.63230(2) 0.96682(4)
Rb1_3 Rb 1.45553(4) 0.63230(2) -0.03318(4)
O2_2 O 0.8348(3) 0.82040(19) 0.5609(3)
O3_2 O 0.1814(3) 0.60467(17) 0.0313(3)
Rb2_2 Rb -0.23826(4) 0.77018(2) 0.29664(3)
Rb2_3 Rb 0.76174(4) 0.77018(2) -0.70336(3)
O6_2 O 0.4022(3) 0.57510(18) -0.2906(3)
O7_2 O 1.0470(3) 0.79667(17) 0.2476(3)
O13 O 0.2628(4) 0.46146(18) -0.0299(3)
H35 H 0.2548 0.4571 -0.126
H36 H 0.1817 0.4942 -0.0339
loop_
_geom_bond_atom_site_label_1
_geom_bond_atom_site_label_2
_geom_bond_site_symmetry_1
_geom_bond_site_symmetry_2
Rb1 O1 1_555 1_555
Mn1 O1 1_555 1_555
O1 C1 1_555 1_555
C1 C2 1_555 1_555
C2 H1 1_555 1_555
C3 C2 1_555 1_555
H2 C3 1_555 1_555
C4 C3 1_555 1_555
H3 C4 1_555 1_555
C5 C4 1_555 1_555
H4 C5 1_555 1_555
C6 C1 1_555 1_555
C7 C6 1_555 1_555
O2 C7 1_555 1_555
N1 Mn1 1_555 1_555
C8 N1 1_555 1_555
H5 C8 1_555 1_555
H6 C8 1_555 1_555
C9 C8 1_555 1_555
H7 C9 1_555 1_555
H8 C9 1_555 1_555
N2 Mn1 1_555 1_555
C10 N2 1_555 1_555
O3 C10 1_555 1_555
C11 C10 1_555 1_555
C12 C11 1_555 1_555
H9 C12 1_555 1_555
C13 C12 1_555 1_555
H10 C13 1_555 1_555
C14 C13 1_555 1_555
H11 C14 1_555 1_555
C15 C14 1_555 1_555
H12 C15 1_555 1_555
C16 C11 1_555 1_555
O4 Rb1 1_555 1_555
Rb2 O4 1_555 1_555
Mn2 O5 1_555 1_555
O5 Rb2 1_555 1_555
C17 O5 1_555 1_555
C18 C17 1_555 1_555
H13 C18 1_555 1_555
C19 C18 1_555 1_555
H14 C19 1_555 1_555
C20 C19 1_555 1_555
H15 C20 1_555 1_555
C21 C20 1_555 1_555
H16 C21 1_555 1_555
C22 C17 1_555 1_555
C23 C22 1_555 1_555
O6 C23 1_555 1_555
N3 Mn2 1_555 1_555
C24 N3 1_555 1_555
H17 C24 1_555 1_555
H18 C24 1_555 1_555
C25 C24 1_555 1_555
H19 C25 1_555 1_555
H20 C25 1_555 1_555
N4 Mn2 1_555 1_555
C26 N4 1_555 1_555
O7 C26 1_555 1_555
C27 C26 1_555 1_555
C28 C27 1_555 1_555
H21 C28 1_555 1_555
C29 C28 1_555 1_555
H22 C29 1_555 1_555
C30 C29 1_555 1_555
H23 C30 1_555 1_555
C31 C30 1_555 1_555
H24 C31 1_555 1_555
C32 C27 1_555 1_555
O8 Rb1 1_555 1_555
O9 Rb2 1_555 1_555
O10 Mn1 1_555 1_555
O11 Rb1 1_555 1_555
C33 O11 1_555 1_555
H25 C33 1_555 1_555
H26 C33 1_555 1_555
H27 C33 1_555 1_555
H28 O9 1_555 1_555
H29 O9 1_555 1_555
H30 O10 1_555 1_555
H31 O10 1_555 1_555
H32 O11 1_555 1_555
O12 Rb2 1_555 1_555
H33 O12 1_555 1_555
H34 O12 1_555 1_555
O13 H35 1_555 1_555
H36 O13 1_555 1_555
Rb1_2 O6 1_555 1_555
Rb1_3 O3 1_555 1_555
O2_2 Rb2 1_555 1_555
O3_2 Rb1 1_555 1_555
Rb2_2 O7 1_555 1_555
Rb2_3 O2 1_555 1_555
O6_2 Rb1 1_555 1_555
O7_2 Rb2 1_555 1_555
Mn1 O4 1_555 1_555
C5 C6 1_555 1_555
C7 N1 1_555 1_555
C9 N2 1_555 1_555
C15 C16 1_555 1_555
C16 O4 1_555 1_555
Rb2 O8 1_555 1_555
Rb2 O10 1_555 1_555
Mn2 O8 1_555 1_555
Mn2 O11 1_555 1_555
C21 C22 1_555 1_555
C23 N3 1_555 1_555
C25 N4 1_555 1_555
C31 C32 1_555 1_555
C32 O8 1_555 1_555

#END
