
#######################################################################
#
#                 Cambridge Crystallographic Data Centre
#                                CCDC 
#
#######################################################################
#
# If this CIF has been generated from an entry in the Cambridge 
# Structural Database, then it will include bibliographic, chemical, 
# crystal, experimental, refinement or atomic coordinate data resulting 
# from the CCDC's data processing and validation procedures.
#
#######################################################################

data_ZUDPOF
_symmetry_cell_setting           monoclinic
_symmetry_space_group_name_H-M   'P 21'
_symmetry_Int_Tables_number      4
_space_group_name_Hall           'P 2ybc'
loop_
_symmetry_equiv_pos_site_id
_symmetry_equiv_pos_as_xyz
1 x,y,z
2 -x,1/2+y,1/2-z
_cell_length_a                   7.9685(2)
_cell_length_b                   25.2773(5)
_cell_length_c                   9.1700(7)
_cell_angle_alpha                90
_cell_angle_beta                 109.674(8)
_cell_angle_gamma                90
_cell_volume                     1739.22
loop_
_atom_site_label
_atom_site_type_symbol
_atom_site_fract_x
_atom_site_fract_y
_atom_site_fract_z
Pb1 Pb 0.30501(3) 0.24844(2) 0.50130(2)
Pb2 Pb 0.30593(3) 0.07942(2) 1.00156(2)
I1 I 0.19694(5) 0.17015(2) 0.73372(4)
I2 I 0.39892(5) -0.00581(2) 0.80017(4)
I3 I 0.39910(5) 0.33404(2) 0.29991(5)
I4 I 0.19680(5) 0.15774(2) 0.23413(4)
C1 C -0.2424(6) 0.07334(16) 1.1063(5)
C2 C -0.3039(5) 0.13190(15) 0.8944(4)
H1 H -0.3755 0.1598 0.8364
C3 C -0.1348(4) 0.05473(12) 1.0521(4)
C4 C -0.2550(6) 0.05920(11) 1.2685(5)
C5 C -0.1068(7) 0.05497(12) 1.4012(5)
H2 H 0.0122 0.0574 1.4012
C6 C -0.4477(7) 0.04810(14) 1.3833(5)
H3 H -0.5682 0.0457 1.3791
C7 C -0.3178(8) 0.04204(17) 1.5304(7)
H4 H -0.3459 0.0351 1.6214
C8 C -0.1487(8) 0.04698(17) 1.5301(6)
H5 H -0.0542 0.0447 1.6264
N1 N 0.1505(6) 0.00048(16) 1.1096(4)
C9 C 0.0178(7) -0.08318(16) 1.2285(3)
H6 H -0.0386 -0.1101 1.2678
C10 C 0.1960(8) -0.0856(2) 1.2411(4)
H7 H 0.2704 -0.1144 1.2898
C11 C -0.2542(6) 0.26753(11) 0.7394(5)
C12 C -0.1050(7) 0.27218(11) 0.8803(6)
H8 H 0.0110 0.2674 0.8749
C13 C -0.4393(7) 0.28472(14) 0.8923(6)
H9 H -0.5567 0.2892 0.8949
C14 C -0.2954(8) 0.28890(16) 1.0261(7)
H10 H -0.3156 0.2956 1.1207
C15 C -0.2438(6) 0.25350(15) 0.5918(5)
C16 C -0.0767(5) 0.27770(12) 0.5458(4)
N2 N -0.0402(4) 0.25529(11) 0.4227(3)
C17 C -0.1736(5) 0.21103(14) 0.3619(4)
H11 H -0.1578 0.1911 0.2795
C18 C -0.3182(7) 0.1945(2) 0.4082(6)
H12 H -0.3928 0.1669 0.3521
C19 C 0.0057(7) 0.32452(18) 0.6199(3)
C20 C 0.2576(8) 0.3709(2) 0.6590(4)
H13 H 0.3754 0.3741 0.6566
C21 C -0.0936(8) 0.36782(19) 0.6680(4)
H14 H -0.2117 0.3658 0.6702
C22 C 0.1998(6) 0.41394(17) 0.7059(4)
H15 H 0.2735 0.4443 0.7357
C23 C 0.0244(9) 0.4138(3) 0.7108(5)
H16 H -0.0189 0.4450 0.7435
C24 C -0.0239(7) 0.00182(19) 1.1026(5)
C25 C 0.2619(7) -0.04105(19) 1.1745(5)
H17 H 0.3817 -0.0408 1.1761
N3 N -0.4248(5) 0.05599(13) 1.2623(4)
N4 N -0.3274(5) 0.11305(14) 1.0281(4)
N5 N -0.1073(5) 0.07301(16) 0.9285(5)
N6 N 0.1872(5) 0.32510(13) 0.6153(3)
N7 N -0.4117(6) 0.27346(14) 0.7467(5)
N8 N -0.3527(7) 0.21552(19) 0.5230(5)
C26 C -0.0695(7) -0.0395(2) 1.1558(5)
C27 C -0.1200(7) 0.28359(15) 1.0279(6)
H18 H -0.0194 0.2873 1.1194
C28 C -0.1750(8) 0.1092(2) 0.8488(7)
H19 H -0.1433 0.1209 0.7632
Pb1_2 Pb -0.69499(3) 0.24844(2) 0.50130(2)
Pb2_2 Pb -0.69407(3) 0.07942(2) 1.00156(2)
Pb2_3 Pb 0.30593(3) 0.07942(2) 0.00156(2)
I4_2 I 0.19680(5) 0.15774(2) 1.23413(4)
N3_2 N 0.5752(5) 0.05599(13) 1.2623(4)
N7_2 N 0.5883(6) 0.27346(14) 0.7467(5)
N8_2 N 0.6473(7) 0.21552(19) 0.5230(5)
loop_
_geom_bond_atom_site_label_1
_geom_bond_atom_site_label_2
_geom_bond_site_symmetry_1
_geom_bond_site_symmetry_2
Pb1 I1 1_555 1_555
Pb2 I1 1_555 1_555
I2 Pb2 1_555 1_555
I3 Pb1 1_555 1_555
I4 Pb1 1_555 1_555
C1 C3 1_555 1_555
C2 H1 1_555 1_555
C3 C24 1_555 1_555
C4 C1 1_555 1_555
C5 C4 1_555 1_555
H2 C5 1_555 1_555
C6 H3 1_555 1_555
C7 C6 1_555 1_555
H4 C7 1_555 1_555
C8 C5 1_555 1_555
H5 C8 1_555 1_555
N1 Pb2 1_555 1_555
C9 H6 1_555 1_555
C10 C9 1_555 1_555
H7 C10 1_555 1_555
C11 C12 1_555 1_555
C12 H8 1_555 1_555
C13 H9 1_555 1_555
C14 C13 1_555 1_555
H10 C14 1_555 1_555
C15 C11 1_555 1_555
C16 C15 1_555 1_555
N2 Pb1 1_555 1_555
C17 N2 1_555 1_555
H11 C17 1_555 1_555
C18 C17 1_555 1_555
H12 C18 1_555 1_555
C19 C16 1_555 1_555
C20 H13 1_555 1_555
C21 C19 1_555 1_555
H14 C21 1_555 1_555
C22 C20 1_555 1_555
H15 C22 1_555 1_555
C23 C21 1_555 1_555
H16 C23 1_555 1_555
C24 N1 1_555 1_555
C25 N1 1_555 1_555
H17 C25 1_555 1_555
N3 C4 1_555 1_555
N4 C1 1_555 1_555
N5 C3 1_555 1_555
N6 Pb1 1_555 1_555
N7 C11 1_555 1_555
N8 C15 1_555 1_555
C26 C9 1_555 1_555
C27 C12 1_555 1_555
H18 C27 1_555 1_555
C28 C2 1_555 1_555
H19 C28 1_555 1_555
Pb1_2 N7 1_555 1_555
Pb2_2 N3 1_555 1_555
Pb2_3 I4 1_555 1_555
I4_2 Pb2 1_555 1_555
N3_2 Pb2 1_555 1_555
N7_2 Pb1 1_555 1_555
N8_2 Pb1 1_555 1_555
C2 N4 1_555 1_555
C6 N3 1_555 1_555
C7 C8 1_555 1_555
C10 C25 1_555 1_555
C13 N7 1_555 1_555
C14 C27 1_555 1_555
C16 N2 1_555 1_555
C18 N8 1_555 1_555
C19 N6 1_555 1_555
C20 N6 1_555 1_555
C22 C23 1_555 1_555
C24 C26 1_555 1_555
N5 C28 1_555 1_555
N8 Pb1_2 1_555 1_555

#END
