
#######################################################################
#
#                 Cambridge Crystallographic Data Centre
#                                CCDC 
#
#######################################################################
#
# If this CIF has been generated from an entry in the Cambridge 
# Structural Database, then it will include bibliographic, chemical, 
# crystal, experimental, refinement or atomic coordinate data resulting 
# from the CCDC's data processing and validation procedures.
#
#######################################################################

data_ZUDQAS
_symmetry_cell_setting           trigonal
_symmetry_space_group_name_H-M   'P -3'
_symmetry_Int_Tables_number      147
_space_group_name_Hall           '-P 3'
loop_
_symmetry_equiv_pos_site_id
_symmetry_equiv_pos_as_xyz
1 x,y,z
2 -y,x-y,z
3 -x+y,-x,z
4 -x,-y,-z
5 y,-x+y,-z
6 x-y,x,-z
_cell_length_a                   14.3563(3)
_cell_length_b                   14.3563(3)
_cell_length_c                   8.2827(4)
_cell_angle_alpha                90
_cell_angle_beta                 90
_cell_angle_gamma                120
_cell_volume                     1478.39
loop_
_atom_site_label
_atom_site_type_symbol
_atom_site_fract_x
_atom_site_fract_y
_atom_site_fract_z
O1 O 0.0918(3) 0.1946(4) 0.7875(5)
C1 C 0.2225(4) 0.6203(4) 0.5256(6)
H1 H 0.1480 0.5891 0.5261
C2 C 0.1449(5) 0.1501(5) 0.7652(8)
O2 O 0.1781(3) 0.1345(3) 0.6333(5)
C3 C 0.1984(4) 0.4341(4) 0.5376(7)
O3 O 0.1018(3) 0.3982(3) 0.5676(6)
O4 O 0.2453(3) 0.3807(3) 0.5227(6)
N1 N 0.3603(5) 0.4029(5) -0.0628(7)
C4 C 0.2688(4) 0.5552(4) 0.5251(6)
O5 O 0.2603(4) 0.3383(4) 0.1631(6)
C5 C 0.3163(6) 0.3332(6) 0.0571(10)
H2 H 0.3293 0.2760 0.0606
C6 C 0.4203(7) 0.3870(8) -0.1922(10)
H3 H 0.4282 0.3260 -0.1675
H4 H 0.4901 0.4500 -0.2019
H5 H 0.3820 0.3747 -0.2922
C7 C 0.3406(9) 0.4923(7) -0.0720(12)
H6 H 0.3015 0.4925 0.0219
H7 H 0.2992 0.4852 -0.1670
H8 H 0.4079 0.5586 -0.0770
Cd1 Cd 0.22360(3) 0.23416(3) 0.39535(5)
H9 H 0.162(4) 0.127(4) 0.850(4)
C1A C 0.3797(4) 0.6022(6) 0.5256(6)
H1A H 0.4109 0.5589 0.5261
C3A C 0.5659(4) 0.7643(6) 0.5376(7)
O3A O 0.6018(3) 0.7036(4) 0.5676(6)
O4A O 0.6193(3) 0.8646(4) 0.5227(6)
C4A C 0.4448(4) 0.7136(6) 0.5251(6)
C1B C 0.3978(6) 0.7775(4) 0.5256(6)
H1B H 0.4411 0.8520 0.5261
C3B C 0.2357(6) 0.8016(4) 0.5376(7)
O3B O 0.2964(4) 0.8982(3) 0.5676(6)
O4B O 0.1354(4) 0.7547(3) 0.5227(6)
C4B C 0.2864(6) 0.7312(4) 0.5251(6)
O1A O 0.8054(4) 0.8972(5) 0.7875(5)
C2A C 0.8499(5) 0.9948(7) 0.7652(8)
O2A O 0.8655(3) 1.0436(4) 0.6333(5)
N1A N 0.5971(5) 0.9574(7) -0.0628(7)
O5A O 0.6617(4) 0.9220(6) 0.1631(6)
C5A C 0.6668(6) 0.9831(8) 0.0571(10)
H2A H 0.7240 1.0533 0.0606
C6A C 0.6130(8) 1.0333(11) -0.1922(10)
H3A H 0.6740 1.1022 -0.1675
H4A H 0.5500 1.0401 -0.2019
H5A H 0.6253 1.0073 -0.2922
C7A C 0.5077(7) 0.8483(11) -0.0720(12)
H6A H 0.5075 0.8090 0.0219
H7A H 0.5148 0.8140 -0.1670
H8A H 0.4414 0.8493 -0.0770
Cd1A Cd 0.76584(3) 0.98944(4) 0.39535(5)
H9A H 0.873(4) 1.035(6) 0.850(4)
O1B O 0.1028(5) 0.9082(3) 0.7875(5)
C2B C 0.0052(7) 0.8551(5) 0.7652(8)
O2B O -0.0436(4) 0.8219(3) 0.6333(5)
N1B N 0.0426(7) 0.6397(5) -0.0628(7)
O5B O 0.0780(6) 0.7397(4) 0.1631(6)
C5B C 0.0169(8) 0.6837(6) 0.0571(10)
H2B H -0.0533 0.6707 0.0606
C6B C -0.0333(11) 0.5797(7) -0.1922(10)
H3B H -0.1022 0.5718 -0.1675
H4B H -0.0401 0.5099 -0.2019
H5B H -0.0073 0.6180 -0.2922
C7B C 0.1517(11) 0.6594(9) -0.0720(12)
H6B H 0.1910 0.6985 0.0219
H7B H 0.1860 0.7008 -0.1670
H8B H 0.1507 0.5921 -0.0770
Cd1B Cd 0.01056(4) 0.77640(3) 0.39535(5)
H9B H -0.035(6) 0.838(4) 0.850(4)
O1C O -0.0918(3) 0.8054(4) 0.2125(5)
O1D O 0.1946(4) 0.1028(5) 0.2125(5)
O1E O 0.8972(5) 1.0918(3) 0.2125(5)
O2C O 0.8219(3) 0.8655(3) 0.3667(5)
O2D O 0.1345(3) 0.9564(4) 0.3667(5)
O2E O 0.0436(4) 0.1781(3) 0.3667(5)
O3C O -0.1018(3) 0.6018(3) 0.4324(6)
O3D O 0.3982(3) 0.2964(4) 0.4324(6)
O3E O 0.7036(4) 1.1018(3) 0.4324(6)
Cd1C Cd -0.22360(3) 0.76584(3) 0.60465(5)
Cd1C_2 Cd 0.77640(3) 0.76584(3) 0.60465(5)
Cd1D Cd 0.23416(3) 0.01056(4) 0.60465(5)
Cd1D_2 Cd 0.23416(3) 1.01056(4) 0.60465(5)
Cd1E Cd -0.01056(4) 0.22360(3) 0.60465(5)
Cd1E_2 Cd 0.98944(4) 1.22360(3) 0.60465(5)
loop_
_geom_bond_atom_site_label_1
_geom_bond_atom_site_label_2
_geom_bond_site_symmetry_1
_geom_bond_site_symmetry_2
O1 C2 1_555 1_555
C1 H1 1_555 1_555
C2 O2 1_555 1_555
O2 Cd1 1_555 1_555
C3 O3 1_555 1_555
O3 Cd1E 1_555 1_555
O4 C3 1_555 1_555
N1 C5 1_555 1_555
C4 C1 1_555 1_555
O5 C5 1_555 1_555
C5 H2 1_555 1_555
C6 N1 1_555 1_555
H3 C6 1_555 1_555
H4 C6 1_555 1_555
H5 C6 1_555 1_555
C7 N1 1_555 1_555
H6 C7 1_555 1_555
H7 C7 1_555 1_555
H8 C7 1_555 1_555
Cd1 O4 1_555 1_555
H9 C2 1_555 1_555
C1A C4 1_555 1_555
H1A C1A 1_555 1_555
C3A O3A 1_555 1_555
O3A Cd1C_2 1_555 1_555
O4A C3A 1_555 1_555
C4A C1A 1_555 1_555
C1B C4A 1_555 1_555
H1B C1B 1_555 1_555
C3B O3B 1_555 1_555
O3B Cd1D_2 1_555 1_555
O4B C3B 1_555 1_555
C4B C1 1_555 1_555
O1A C2A 1_555 1_555
C2A O2A 1_555 1_555
O2A Cd1A 1_555 1_555
N1A C5A 1_555 1_555
O5A C5A 1_555 1_555
C5A H2A 1_555 1_555
C6A N1A 1_555 1_555
H3A C6A 1_555 1_555
H4A C6A 1_555 1_555
H5A C6A 1_555 1_555
C7A N1A 1_555 1_555
H6A C7A 1_555 1_555
H7A C7A 1_555 1_555
H8A C7A 1_555 1_555
Cd1A O4A 1_555 1_555
H9A C2A 1_555 1_555
O1B C2B 1_555 1_555
C2B O2B 1_555 1_555
O2B Cd1B 1_555 1_555
N1B C5B 1_555 1_555
O5B C5B 1_555 1_555
C5B H2B 1_555 1_555
C6B N1B 1_555 1_555
H3B C6B 1_555 1_555
H4B C6B 1_555 1_555
H5B C6B 1_555 1_555
C7B N1B 1_555 1_555
H6B C7B 1_555 1_555
H7B C7B 1_555 1_555
H8B C7B 1_555 1_555
Cd1B O4B 1_555 1_555
H9B C2B 1_555 1_555
O1C Cd1B 1_555 1_555
O1D Cd1 1_555 1_555
O1E Cd1A 1_555 1_555
O2C Cd1A 1_555 1_555
O2D Cd1B 1_555 1_555
O2E Cd1 1_555 1_555
O3C Cd1B 1_555 1_555
O3D Cd1 1_555 1_555
O3E Cd1A 1_555 1_555
Cd1C O2B 1_555 1_555
Cd1C_2 O1A 1_555 1_555
Cd1D O2 1_555 1_555
Cd1D_2 O1B 1_555 1_555
Cd1E O1 1_555 1_555
Cd1E_2 O2A 1_555 1_555
C3 C4 1_555 1_555
O5 Cd1 1_555 1_555
C3A C4A 1_555 1_555
C1B C4B 1_555 1_555
C3B C4B 1_555 1_555
O5A Cd1A 1_555 1_555
O5B Cd1B 1_555 1_555
O2C Cd1C_2 1_555 1_555
O2D Cd1D_2 1_555 1_555
O2E Cd1E 1_555 1_555

#END
