
#######################################################################
#
#                 Cambridge Crystallographic Data Centre
#                                CCDC 
#
#######################################################################
#
# If this CIF has been generated from an entry in the Cambridge 
# Structural Database, then it will include bibliographic, chemical, 
# crystal, experimental, refinement or atomic coordinate data resulting 
# from the CCDC's data processing and validation procedures.
#
#######################################################################

data_ZUDQOG
_symmetry_cell_setting           orthorhombic
_symmetry_space_group_name_H-M   'P 21 21 21'
_symmetry_Int_Tables_number      19
_space_group_name_Hall           'P 2ac 2ab'
loop_
_symmetry_equiv_pos_site_id
_symmetry_equiv_pos_as_xyz
1 x,y,z
2 1/2-x,-y,1/2+z
3 -x,1/2+y,1/2-z
4 1/2+x,1/2-y,-z
_cell_length_a                   8.7154(2)
_cell_length_b                   13.1045(5)
_cell_length_c                   14.5010(3)
_cell_angle_alpha                90
_cell_angle_beta                 90
_cell_angle_gamma                90
_cell_volume                     1656.17
loop_
_atom_site_label
_atom_site_type_symbol
_atom_site_fract_x
_atom_site_fract_y
_atom_site_fract_z
Cd1 Cd 1.16211(4) 0.11617(3) 1.43344(2)
Cd2 Cd 1.17183(4) 0.07186(2) 1.149530(19)
O1 O 0.3035(3) -0.0798(3) 1.1148(2)
O2 O 1.4755(4) 0.1768(3) 1.3719(2)
N1 N 1.7261(4) 0.2048(3) 1.1298(3)
C1 C 1.6467(6) 0.1951(4) 1.2080(3)
H1 H 1.6967 0.2066 1.2637
C2 C 0.4458(5) -0.0926(3) 1.1168(3)
O3 O 0.4985(5) -0.0663(4) 1.5329(2)
C3 C 0.6763(5) -0.0404(3) 1.3721(3)
H2 H 0.7254 -0.0265 1.4277
O4 O 0.5211(4) -0.1124(3) 1.04490(19)
O5 O 0.2840(4) -0.0412(3) 1.4539(2)
O6 O 1.2675(3) 0.1313(3) 1.2926(2)
C4 C 0.6876(5) -0.0641(3) 1.2083(3)
H3 H 0.7444 -0.0683 1.1541
C5 C 0.5198(5) -0.0588(3) 1.3711(3)
C6 C 0.5290(5) -0.0796(3) 1.2062(3)
C7 C 0.4275(6) -0.0545(4) 1.4590(3)
O7 O 1.0404(4) 0.2248(3) 1.1690(2)
H4 H 1.0274 0.2354 1.2241
C8 C 1.4090(5) 0.1593(4) 1.3001(3)
C9 C 0.4461(5) -0.0752(4) 1.2876(3)
H5 H 0.3401 -0.0833 1.2862
N2 N 1.4182(4) 0.1501(3) 1.1320(3)
C10 C 1.6482(6) 0.1876(4) 1.0521(3)
H6 H 1.6982 0.1949 0.9958
C11 C 1.4939(5) 0.1690(3) 1.2095(3)
C12 C 1.4945(6) 0.1591(4) 1.0527(3)
H7 H 1.4444 0.1461 0.9973
O8 O 1.0067(4) -0.0311(3) 1.2225(2)
O9 O 0.9695(4) 0.0340(4) 1.3615(3)
O10 O 0.9867(4) 0.2741(3) 1.3619(3)
O11 O 1.2381(4) 0.2667(3) 1.5090(3)
H8 H 1.3121 0.2915 1.4823
C13 C 0.9284(5) -0.0112(4) 1.2928(3)
C14 C 0.7605(5) -0.0424(3) 1.2908(3)
Cd1_2 Cd 0.16211(4) 0.11617(3) 1.43344(2)
Cd1A Cd 0.33789(4) -0.11617(3) 0.93344(2)
Cd2_2 Cd 0.17183(4) 0.07186(2) 1.149530(19)
Cd2A Cd 0.32817(4) -0.07186(2) 1.649530(19)
O1_2 O 1.3035(3) -0.0798(3) 1.1148(2)
O1A O 1.1965(3) 0.0798(3) 1.6148(2)
O3A O 1.0015(5) 0.0663(4) 1.0329(2)
O4A O 0.9789(4) 0.1124(3) 1.54490(19)
O5_2 O 1.2840(4) -0.0412(3) 1.4539(2)
loop_
_geom_bond_atom_site_label_1
_geom_bond_atom_site_label_2
_geom_bond_site_symmetry_1
_geom_bond_site_symmetry_2
Cd1 O6 1_555 1_555
Cd2 O6 1_555 1_555
O1 C2 1_555 1_555
O2 C8 1_555 1_555
N1 C1 1_555 1_555
C1 H1 1_555 1_555
C2 O4 1_555 1_555
O3 C7 1_555 1_555
C3 H2 1_555 1_555
O4 Cd1A 1_555 1_555
O5 C7 1_555 1_555
O6 C8 1_555 1_555
C4 H3 1_555 1_555
C5 C3 1_555 1_555
C6 C2 1_555 1_555
C7 C5 1_555 1_555
O7 Cd2 1_555 1_555
H4 O7 1_555 1_555
C8 C11 1_555 1_555
C9 C5 1_555 1_555
H5 C9 1_555 1_555
N2 Cd2 1_555 1_555
C10 N1 1_555 1_555
H6 C10 1_555 1_555
C11 C1 1_555 1_555
C12 N2 1_555 1_555
H7 C12 1_555 1_555
O8 Cd2 1_555 1_555
O9 Cd1 1_555 1_555
O10 Cd1 1_555 1_555
O11 Cd1 1_555 1_555
H8 O11 1_555 1_555
C13 O8 1_555 1_555
C14 C3 1_555 1_555
Cd1_2 O5 1_555 1_555
Cd1A O1 1_555 1_555
Cd2_2 O1 1_555 1_555
Cd2A O3 1_555 1_555
O1_2 Cd2 1_555 1_555
O1A Cd1 1_555 1_555
O3A Cd2 1_555 1_555
O4A Cd1 1_555 1_555
O5_2 Cd1 1_555 1_555
C4 C6 1_555 1_555
C4 C14 1_555 1_555
C6 C9 1_555 1_555
N2 C11 1_555 1_555
C10 C12 1_555 1_555
O9 C13 1_555 1_555
C13 C14 1_555 1_555

#END
