
#######################################################################
#
#                 Cambridge Crystallographic Data Centre
#                                CCDC 
#
#######################################################################
#
# If this CIF has been generated from an entry in the Cambridge 
# Structural Database, then it will include bibliographic, chemical, 
# crystal, experimental, refinement or atomic coordinate data resulting 
# from the CCDC's data processing and validation procedures.
#
#######################################################################

data_ZUDYII
_symmetry_cell_setting           monoclinic
_symmetry_space_group_name_H-M   'P 21/c'
_symmetry_Int_Tables_number      14
_space_group_name_Hall           '-P 2ybc'
loop_
_symmetry_equiv_pos_site_id
_symmetry_equiv_pos_as_xyz
1 x,y,z
2 -x,1/2+y,1/2-z
3 -x,-y,-z
4 x,1/2-y,1/2+z
_cell_length_a                   12.8937(16)
_cell_length_b                   12.5081(15)
_cell_length_c                   14.7682(18)
_cell_angle_alpha                90
_cell_angle_beta                 108.990(2)
_cell_angle_gamma                90
_cell_volume                     2252.13
loop_
_atom_site_label
_atom_site_type_symbol
_atom_site_fract_x
_atom_site_fract_y
_atom_site_fract_z
Ag1 Ag 0.76135(2) 0.034353(18) 0.102621(17)
P1 P 0.66107(5) 0.16511(6) -0.00229(5)
N1 N 0.86459(17) -0.11508(18) 0.10268(15)
C1 C 0.88114(18) -0.1859(2) 0.17404(17)
O1 O 0.74609(17) -0.08729(18) 0.21597(16)
C2 C 0.9582(2) -0.2690(2) 0.1852(2)
C3 C 0.5323(2) 0.2047(2) 0.0135(2)
C4 C 0.6278(2) 0.1194(2) -0.1257(2)
C5 C 0.7343(2) 0.2900(2) -0.0012(2)
C6 C 0.8064(2) -0.1644(3) 0.2342(2)
O2 O 0.8109(3) -0.2280(3) 0.3015(2)
C7 C 0.9197(3) -0.1236(3) 0.0403(2)
H1 H 0.9062 -0.0740 -0.0091
C8 C 0.9952(3) -0.2024(3) 0.0465(3)
H2 H 1.0321 -0.2073 0.0020
C9 C 0.8109(3) 0.3229(3) 0.0842(3)
H3 H 0.8230 0.2817 0.1391
C10 C 0.9913(3) -0.3560(3) 0.2617(3)
C11 C 0.7150(3) 0.0872(3) -0.1550(3)
H4 H 0.7862 0.0904 -0.1124
O3 O 1.0683(3) -0.4125(2) 0.2622(2)
C12 C 0.4689(2) 0.2882(3) -0.0374(3)
H5 H 0.4920 0.3261 -0.0815
C13 C 0.7183(3) 0.3528(3) -0.0818(3)
H6 H 0.6676 0.3321 -0.1398
C14 C 0.8693(3) 0.4164(3) 0.0884(4)
H7 H 0.9199 0.4381 0.1461
C15 C 0.8531(3) 0.4771(3) 0.0084(4)
H8 H 0.8935 0.5394 0.0116
C16 C 0.5220(3) 0.1101(3) -0.1879(2)
H9 H 0.4632 0.1290 -0.1680
C17 C 0.6964(4) 0.0505(3) -0.2470(3)
H10 H 0.7550 0.0297 -0.2666
O4 O 0.9391(3) -0.3672(3) 0.3199(2)
C18 C 1.0145(2) -0.2726(3) 0.1189(3)
H11 H 1.0672 -0.3254 0.1251
C19 C 0.7780(4) 0.4469(3) -0.0764(4)
H12 H 0.7665 0.4891 -0.1307
C20 C 0.4957(3) 0.1498(3) 0.0788(3)
H13 H 0.5366 0.0930 0.1128
C21 C 0.5034(4) 0.0725(3) -0.2802(3)
H14 H 0.4320 0.0663 -0.3221
C22 C 0.5901(6) 0.0446(3) -0.3100(3)
H15 H 0.5775 0.0217 -0.3726
C23 C 0.3712(3) 0.3155(3) -0.0228(3)
H16 H 0.3285 0.3707 -0.0580
C24 C 0.3375(3) 0.2613(3) 0.0432(3)
H17 H 0.2727 0.2807 0.0537
C25 C 0.3992(3) 0.1785(3) 0.0941(3)
H18 H 0.3761 0.1416 0.1388
Ag1A Ag 1.23865(2) -0.465647(18) 0.397379(17)
O3A O 0.9317(3) 0.0875(2) 0.2378(2)
loop_
_geom_bond_atom_site_label_1
_geom_bond_atom_site_label_2
_geom_bond_site_symmetry_1
_geom_bond_site_symmetry_2
Ag1 P1 1_555 1_555
P1 C3 1_555 1_555
N1 Ag1 1_555 1_555
C1 N1 1_555 1_555
O1 Ag1 1_555 1_555
C2 C1 1_555 1_555
C3 C12 1_555 1_555
C4 P1 1_555 1_555
C5 P1 1_555 1_555
C6 C1 1_555 1_555
O2 C6 1_555 1_555
C7 N1 1_555 1_555
H1 C7 1_555 1_555
C8 C7 1_555 1_555
H2 C8 1_555 1_555
C9 C5 1_555 1_555
H3 C9 1_555 1_555
C10 C2 1_555 1_555
C11 C4 1_555 1_555
H4 C11 1_555 1_555
O3 C10 1_555 1_555
C12 H5 1_555 1_555
C13 C5 1_555 1_555
H6 C13 1_555 1_555
C14 C9 1_555 1_555
H7 C14 1_555 1_555
C15 C14 1_555 1_555
H8 C15 1_555 1_555
C16 C4 1_555 1_555
H9 C16 1_555 1_555
C17 C11 1_555 1_555
H10 C17 1_555 1_555
O4 C10 1_555 1_555
C18 C2 1_555 1_555
H11 C18 1_555 1_555
C19 C13 1_555 1_555
H12 C19 1_555 1_555
C20 C3 1_555 1_555
H13 C20 1_555 1_555
C21 C16 1_555 1_555
H14 C21 1_555 1_555
C22 C17 1_555 1_555
H15 C22 1_555 1_555
C23 C12 1_555 1_555
H16 C23 1_555 1_555
C24 C23 1_555 1_555
H17 C24 1_555 1_555
C25 C20 1_555 1_555
H18 C25 1_555 1_555
Ag1A O3 1_555 1_555
O3A Ag1 1_555 1_555
O1 C6 1_555 1_555
C8 C18 1_555 1_555
C15 C19 1_555 1_555
C21 C22 1_555 1_555
C24 C25 1_555 1_555

#END
