
#######################################################################
#
#                 Cambridge Crystallographic Data Centre
#                                CCDC 
#
#######################################################################
#
# If this CIF has been generated from an entry in the Cambridge 
# Structural Database, then it will include bibliographic, chemical, 
# crystal, experimental, refinement or atomic coordinate data resulting 
# from the CCDC's data processing and validation procedures.
#
#######################################################################

data_ZUDYOO
_symmetry_cell_setting           monoclinic
_symmetry_space_group_name_H-M   'P 21/c'
_symmetry_Int_Tables_number      14
_space_group_name_Hall           '-P 2ybc'
loop_
_symmetry_equiv_pos_site_id
_symmetry_equiv_pos_as_xyz
1 x,y,z
2 -x,1/2+y,1/2-z
3 -x,-y,-z
4 x,1/2-y,1/2+z
_cell_length_a                   15.8458(4)
_cell_length_b                   17.9803(5)
_cell_length_c                   14.3366(4)
_cell_angle_alpha                90
_cell_angle_beta                 96.098(2)
_cell_angle_gamma                90
_cell_volume                     4061.56
loop_
_atom_site_label
_atom_site_type_symbol
_atom_site_fract_x
_atom_site_fract_y
_atom_site_fract_z
Ag1 Ag 0.451742(14) 0.538498(13) 0.419639(16)
Ag2 Ag 0.050150(14) 0.456530(13) 0.588268(16)
P1 P 0.47984(5) 0.47562(5) 0.27926(6)
P2 P 0.02797(5) 0.48145(5) 0.74830(6)
O1 O 0.39513(14) 0.45101(12) 0.53101(16)
O2 O 0.43969(14) 0.33698(13) 0.49734(18)
O3 O 0.11581(15) 0.53658(13) 0.48563(17)
O4 O 0.05744(15) 0.64900(15) 0.48259(19)
N1 N 0.14760(16) 0.37719(15) 0.52977(19)
N2 N 0.34938(16) 0.62061(14) 0.43850(18)
C1 C 0.38332(19) 0.38355(18) 0.5084(2)
C2 C 0.29186(19) 0.35854(17) 0.4950(2)
C3 C 0.2659(2) 0.29798(18) 0.4391(2)
H1 H 0.3063 0.2698 0.4096
C4 C 0.1806(2) 0.27901(19) 0.4268(2)
H2 H 0.1615 0.2387 0.3871
C5 C 0.1241(2) 0.31956(17) 0.4729(2)
H3 H 0.0658 0.3062 0.4643
C6 C 0.23031(19) 0.39621(17) 0.5385(2)
H4 H 0.2475 0.4379 0.5767
C7 C 0.1179(2) 0.6059(2) 0.4782(2)
C8 C 0.20204(19) 0.63927(18) 0.4572(2)
C9 C 0.2095(2) 0.71352(18) 0.4328(2)
H5 H 0.1616 0.7455 0.4302
C10 C 0.2866(2) 0.74038(19) 0.4123(2)
H6 H 0.2928 0.7912 0.3963
C11 C 0.3551(2) 0.69220(18) 0.4154(2)
H7 H 0.4082 0.7108 0.4004
C12 C 0.27390(19) 0.59535(18) 0.4593(2)
H8 H 0.2696 0.5446 0.4764
C13 C 0.4017(2) 0.40890(17) 0.2287(2)
C14 C 0.3192(2) 0.41367(19) 0.2530(2)
H9 H 0.3046 0.4519 0.2941
C15 C 0.2578(2) 0.3628(2) 0.2175(3)
H10 H 0.2011 0.3675 0.2327
C16 C 0.2790(2) 0.3056(2) 0.1601(3)
H11 H 0.2373 0.2702 0.1373
C17 C 0.3609(2) 0.29975(19) 0.1359(2)
H12 H 0.3753 0.2606 0.0960
C18 C 0.4219(2) 0.35096(18) 0.1698(2)
H13 H 0.4780 0.3467 0.1529
C19 C 0.5787(2) 0.42393(17) 0.2826(2)
C20 C 0.5840(2) 0.35779(18) 0.3347(2)
H14 H 0.5373 0.3419 0.3659
C21 C 0.6576(2) 0.31562(19) 0.3405(2)
H15 H 0.6602 0.2699 0.3738
C22 C 0.7272(2) 0.33945(19) 0.2982(2)
H16 H 0.7777 0.3106 0.3032
C23 C 0.7231(2) 0.4053(2) 0.2486(3)
H17 H 0.7712 0.4223 0.2204
C24 C 0.6484(2) 0.44730(19) 0.2395(3)
H18 H 0.6454 0.4919 0.2038
C25 C 0.4851(2) 0.54790(18) 0.1903(2)
C26 C 0.4497(2) 0.54098(19) 0.0978(2)
H19 H 0.4236 0.4956 0.0767
C27 C 0.4525(3) 0.6004(2) 0.0362(3)
H20 H 0.4276 0.5955 -0.0267
C28 C 0.4911(2) 0.6666(2) 0.0655(3)
H21 H 0.4937 0.7066 0.0226
C29 C 0.5257(2) 0.67422(19) 0.1571(3)
H22 H 0.5516 0.7198 0.1777
C30 C 0.5228(2) 0.61557(18) 0.2197(2)
H23 H 0.5466 0.6214 0.2829
C31 C 0.1237(2) 0.45656(17) 0.8255(2)
C32 C 0.1799(2) 0.40653(18) 0.7906(2)
H24 H 0.1672 0.3863 0.7295
C33 C 0.2540(2) 0.38615(19) 0.8443(3)
H25 H 0.2921 0.3521 0.8202
C34 C 0.2727(2) 0.4156(2) 0.9337(3)
H26 H 0.3235 0.4017 0.9706
C35 C 0.2175(2) 0.4650(2) 0.9689(3)
H27 H 0.2303 0.4848 1.0302
C36 C 0.1434(2) 0.4858(2) 0.9150(2)
H28 H 0.1059 0.5202 0.9394
C37 C -0.0571(2) 0.43206(17) 0.7985(2)
C38 C -0.0432(2) 0.38759(19) 0.8786(2)
H29 H 0.0127 0.3815 0.9087
C39 C -0.1110(3) 0.3523(2) 0.9143(3)
H30 H -0.1012 0.3221 0.9688
C40 C -0.1923(2) 0.3609(2) 0.8710(3)
H31 H -0.2385 0.3372 0.8961
C41 C -0.2065(2) 0.4040(2) 0.7910(3)
H32 H -0.2625 0.4093 0.7607
C42 C -0.1395(2) 0.43961(19) 0.7548(2)
H33 H -0.1498 0.4693 0.7000
C43 C 0.00818(19) 0.57793(17) 0.7786(2)
C44 C -0.0331(2) 0.59816(19) 0.8562(2)
H34 H -0.0543 0.5607 0.8943
C45 C -0.0433(2) 0.67225(19) 0.8780(3)
H35 H -0.0717 0.6854 0.9308
C46 C -0.0123(2) 0.7275(2) 0.8235(3)
H36 H -0.0183 0.7784 0.8393
C47 C 0.0275(2) 0.7080(2) 0.7460(3)
H37 H 0.0482 0.7458 0.7081
C48 C 0.0376(2) 0.63348(19) 0.7228(3)
H38 H 0.0646 0.6207 0.6689
Ag1B Ag 0.548258(14) 0.461502(13) 0.580361(16)
Ag2B Ag -0.050150(14) 0.543470(13) 0.411732(16)
O1B O 0.60487(14) 0.54899(12) 0.46899(16)
O4B O -0.05744(15) 0.35100(15) 0.51741(19)
loop_
_geom_bond_atom_site_label_1
_geom_bond_atom_site_label_2
_geom_bond_site_symmetry_1
_geom_bond_site_symmetry_2
Ag1 P1 1_555 1_555
Ag2 P2 1_555 1_555
P1 C13 1_555 1_555
P2 C31 1_555 1_555
O1 Ag1 1_555 1_555
O2 C1 1_555 1_555
O3 Ag2 1_555 1_555
O4 C7 1_555 1_555
N1 Ag2 1_555 1_555
N2 Ag1 1_555 1_555
C1 O1 1_555 1_555
C2 C1 1_555 1_555
C3 C2 1_555 1_555
H1 C3 1_555 1_555
C4 C3 1_555 1_555
H2 C4 1_555 1_555
C5 N1 1_555 1_555
H3 C5 1_555 1_555
C6 N1 1_555 1_555
H4 C6 1_555 1_555
C7 O3 1_555 1_555
C8 C7 1_555 1_555
C9 C8 1_555 1_555
H5 C9 1_555 1_555
C10 C9 1_555 1_555
H6 C10 1_555 1_555
C11 N2 1_555 1_555
H7 C11 1_555 1_555
C12 N2 1_555 1_555
H8 C12 1_555 1_555
C13 C14 1_555 1_555
C14 H9 1_555 1_555
C15 C14 1_555 1_555
H10 C15 1_555 1_555
C16 C15 1_555 1_555
H11 C16 1_555 1_555
C17 C16 1_555 1_555
H12 C17 1_555 1_555
C18 C13 1_555 1_555
H13 C18 1_555 1_555
C19 P1 1_555 1_555
C20 C19 1_555 1_555
H14 C20 1_555 1_555
C21 C20 1_555 1_555
H15 C21 1_555 1_555
C22 C21 1_555 1_555
H16 C22 1_555 1_555
C23 C22 1_555 1_555
H17 C23 1_555 1_555
C24 C19 1_555 1_555
H18 C24 1_555 1_555
C25 P1 1_555 1_555
C26 C25 1_555 1_555
H19 C26 1_555 1_555
C27 C26 1_555 1_555
H20 C27 1_555 1_555
C28 C27 1_555 1_555
H21 C28 1_555 1_555
C29 C28 1_555 1_555
H22 C29 1_555 1_555
C30 C25 1_555 1_555
H23 C30 1_555 1_555
C31 C32 1_555 1_555
C32 H24 1_555 1_555
C33 C32 1_555 1_555
H25 C33 1_555 1_555
C34 C33 1_555 1_555
H26 C34 1_555 1_555
C35 C34 1_555 1_555
H27 C35 1_555 1_555
C36 C31 1_555 1_555
H28 C36 1_555 1_555
C37 P2 1_555 1_555
C38 C37 1_555 1_555
H29 C38 1_555 1_555
C39 C38 1_555 1_555
H30 C39 1_555 1_555
C40 C39 1_555 1_555
H31 C40 1_555 1_555
C41 C40 1_555 1_555
H32 C41 1_555 1_555
C42 C37 1_555 1_555
H33 C42 1_555 1_555
C43 P2 1_555 1_555
C44 C43 1_555 1_555
H34 C44 1_555 1_555
C45 C44 1_555 1_555
H35 C45 1_555 1_555
C46 C45 1_555 1_555
H36 C46 1_555 1_555
C47 C46 1_555 1_555
H37 C47 1_555 1_555
C48 C43 1_555 1_555
H38 C48 1_555 1_555
Ag1B O1 1_555 1_555
Ag2B O4 1_555 1_555
O1B Ag1 1_555 1_555
O4B Ag2 1_555 1_555
C2 C6 1_555 1_555
C4 C5 1_555 1_555
C8 C12 1_555 1_555
C10 C11 1_555 1_555
C17 C18 1_555 1_555
C23 C24 1_555 1_555
C29 C30 1_555 1_555
C35 C36 1_555 1_555
C41 C42 1_555 1_555
C47 C48 1_555 1_555
Ag1B O1B 1_555 1_555

#END
