
#######################################################################
#
#                 Cambridge Crystallographic Data Centre
#                                CCDC 
#
#######################################################################
#
# If this CIF has been generated from an entry in the Cambridge 
# Structural Database, then it will include bibliographic, chemical, 
# crystal, experimental, refinement or atomic coordinate data resulting 
# from the CCDC's data processing and validation procedures.
#
#######################################################################

data_ZUFCUA
_symmetry_cell_setting           triclinic
_symmetry_space_group_name_H-M   'P -1'
_symmetry_Int_Tables_number      2
_space_group_name_Hall           '-P 1'
loop_
_symmetry_equiv_pos_site_id
_symmetry_equiv_pos_as_xyz
1 x,y,z
2 -x,-y,-z
_cell_length_a                   7.6805(15)
_cell_length_b                   13.635(3)
_cell_length_c                   19.036(4)
_cell_angle_alpha                109.16(3)
_cell_angle_beta                 93.43(3)
_cell_angle_gamma                92.75(3)
_cell_volume                     1874.88
loop_
_atom_site_label
_atom_site_type_symbol
_atom_site_fract_x
_atom_site_fract_y
_atom_site_fract_z
Dy1 Dy 0.88688(2) -0.037533(14) 0.078503(10)
O1 O 0.7062(4) 0.0439(2) 0.17570(18)
O2 O 0.5959(4) -0.0697(2) 0.02599(17)
O3 O 0.7286(5) -0.1672(3) 0.1306(2)
O4 O 1.0893(5) -0.0553(3) 0.1684(2)
O5 O 0.9728(4) 0.1362(2) 0.13149(18)
O6 O 0.9252(5) -0.2066(2) 0.00368(19)
O7 O 1.1601(4) -0.0288(2) 0.02415(16)
C1 C 0.6552(6) 0.1148(4) 0.2299(2)
Dy2 Dy 0.42071(2) 0.055967(15) 0.095825(11)
H1 H 0.5438 -0.1278 0.0223
H2 H 0.7381 -0.2301 0.1040
H3 H 0.7773 -0.1551 0.1742
C2 C 0.7784(7) 0.1766(4) 0.2954(2)
O8 O 0.4979(4) 0.1381(3) 0.22982(18)
O9 O 0.3683(5) -0.0782(3) 0.1471(2)
O10 O 0.6135(4) 0.1928(3) 0.10021(19)
O11 O 0.2464(4) 0.1930(3) 0.1295(2)
C3 C 0.9491(7) 0.1551(4) 0.3037(3)
C4 C 0.7173(7) 0.2642(4) 0.3497(3)
C5 C 0.2394(6) -0.0747(4) 0.1853(3)
C6 C 0.5957(6) 0.2697(4) 0.0773(3)
C7 C 0.0877(6) 0.2055(3) 0.1342(2)
H4 H 0.1862 -0.0917 0.0070
H5 H 0.9935 0.0988 0.2688
C8 C 1.0571(7) 0.2201(4) 0.3660(3)
H6 H 0.6016 0.2787 0.3430
N1 N 0.8122(7) 0.3262(4) 0.4084(3)
C9 C 0.2697(7) -0.0888(4) 0.2599(3)
C10 C 0.5299(6) 0.3652(4) 0.1309(3)
O12 O 0.6238(7) 0.2668(3) 0.0134(2)
C11 C 0.0311(6) 0.3143(3) 0.1483(2)
C12 C 1.2350(8) 0.2044(5) 0.3791(3)
C13 C 0.9831(7) 0.3046(4) 0.4177(3)
C14 C 0.1307(8) -0.0980(4) 0.2994(3)
C15 C 0.4416(9) -0.0887(5) 0.2907(3)
C16 C 0.5011(7) 0.3709(4) 0.2025(3)
C17 C 0.4830(7) 0.4495(4) 0.1083(3)
C18 C -0.0215(6) 0.3705(3) 0.2166(2)
C19 C 0.0308(5) 0.3619(3) 0.0925(2)
C20 C 0.0799(6) 0.3039(3) 0.0149(3)
H7 H 1.2866 0.1499 0.3455
C21 C 1.3314(9) 0.2687(6) 0.4410(4)
C22 C 1.0868(9) 0.3700(5) 0.4818(3)
H8 H 0.0166 -0.0988 0.2798
C23 C 0.1657(9) -0.1063(4) 0.3715(3)
H9 H 0.5342 -0.0831 0.2627
N2 N 0.4774(8) -0.0963(5) 0.3571(3)
H10 H 0.5295 0.3165 0.2194
C24 C 0.4287(7) 0.4586(4) 0.2505(3)
H11 H 0.5031 0.4461 0.0598
N3 N 0.4131(6) 0.5325(3) 0.1501(3)
H12 H -0.0239 0.3409 0.2542
C25 C -0.0718(6) 0.4725(3) 0.2302(3)
N4 N -0.0133(5) 0.4586(3) 0.1032(2)
O13 O 0.1202(5) 0.3562(3) -0.02557(19)
H13 H 1.4484 0.2578 0.4492
C26 C 1.2560(10) 0.3515(6) 0.4925(4)
H14 H 1.0386 0.4253 0.5161
C27 C 0.0265(11) -0.1173(5) 0.4155(4)
C28 C 0.3413(10) -0.1039(5) 0.3982(3)
C29 C 0.3950(9) 0.4681(5) 0.3248(3)
C30 C 0.3864(7) 0.5391(4) 0.2222(3)
C31 C -0.1326(7) 0.5326(4) 0.2992(3)
C32 C -0.0675(6) 0.5148(3) 0.1715(2)
Co1 Co 0.0000 0.5000 0.0000
H15 H 1.3235 0.3941 0.5347
H16 H -0.0897 -0.1192 0.3980
C33 C 0.0695(13) -0.1252(6) 0.4850(4)
C34 C 0.3748(12) -0.1119(6) 0.4707(4)
H17 H 0.4225 0.4154 0.3437
C35 C 0.3219(9) 0.5547(5) 0.3690(4)
C36 C 0.3119(8) 0.6283(4) 0.2694(4)
H18 H -0.1366 0.5056 0.3380
C37 C -0.1852(7) 0.6300(4) 0.3085(3)
C38 C -0.1194(7) 0.6169(4) 0.1835(3)
O14 O 0.2307(5) 0.5883(3) 0.0425(2)
H19 H -0.0191 -0.1336 0.5142
C39 C 0.2382(13) -0.1207(6) 0.5110(4)
H20 H 0.4891 -0.1110 0.4902
H21 H 0.2997 0.5607 0.4176
C40 C 0.2806(8) 0.6344(4) 0.3404(4)
H22 H 0.2847 0.6823 0.2518
H23 H -0.2260 0.6686 0.3537
C41 C -0.1784(8) 0.6724(4) 0.2508(3)
H24 H -0.1135 0.6463 0.1459
H25 H 0.2902 0.5855 0.0808
H26 H 0.2787 0.6333 0.0263
H27 H 0.2620 -0.1238 0.5587
H28 H 0.2307 0.6926 0.3707
H29 H -0.2143 0.7390 0.2582
O7A O 0.8399(4) 0.0288(2) -0.02415(16)
Dy2A Dy 0.57929(2) -0.055967(15) -0.095825(11)
O7_2 O 0.1601(4) -0.0288(2) 0.02415(16)
O2A O 0.4041(4) 0.0697(2) -0.02599(17)
Dy1_2 Dy -0.11312(2) -0.037533(14) 0.078503(10)
Dy1A Dy 0.11312(2) 0.037533(14) -0.078503(10)
O4_2 O 0.0893(5) -0.0553(3) 0.1684(2)
O5_2 O -0.0272(4) 0.1362(2) 0.13149(18)
O6A O 0.0748(5) 0.2066(2) -0.00368(19)
N4A N 0.0133(5) 0.5414(3) -0.1032(2)
O13A O -0.1202(5) 0.6438(3) 0.02557(19)
O14A O -0.2307(5) 0.4117(3) -0.0425(2)
C32A C 0.0675(6) 0.4852(3) -0.1715(2)
C19A C -0.0308(5) 0.6381(3) -0.0925(2)
C20A C -0.0799(6) 0.6961(3) -0.0149(3)
H25A H -0.2902 0.4145 -0.0808
H26A H -0.2787 0.3667 -0.0263
C25A C 0.0718(6) 0.5275(3) -0.2302(3)
C38A C 0.1194(7) 0.3831(4) -0.1835(3)
C11A C -0.0311(6) 0.6857(3) -0.1483(2)
O6_2 O -0.0748(5) 0.7934(2) 0.00368(19)
C18A C 0.0215(6) 0.6295(3) -0.2166(2)
C31A C 0.1326(7) 0.4674(4) -0.2992(3)
C41A C 0.1784(8) 0.3276(4) -0.2508(3)
H24A H 0.1135 0.3537 -0.1459
C7A C -0.0877(6) 0.7945(3) -0.1342(2)
Dy1_3 Dy -0.11312(2) 0.962467(14) 0.078503(10)
H12A H 0.0239 0.6591 -0.2542
H18A H 0.1366 0.4944 -0.3380
C37A C 0.1852(7) 0.3700(4) -0.3085(3)
H29A H 0.2143 0.2610 -0.2582
O11A O -0.2464(4) 0.8070(3) -0.1295(2)
O5A O 0.0272(4) 0.8638(2) -0.13149(18)
O7A_2 O -0.1601(4) 1.0288(2) -0.02415(16)
O2_2 O -0.4041(4) 0.9303(2) 0.02599(17)
H23A H 0.2260 0.3314 -0.3537
Dy2A_2 Dy -0.42071(2) 0.944033(15) -0.095825(11)
Dy1A_2 Dy 0.11312(2) 1.037533(14) -0.078503(10)
H4A H -0.1862 1.0917 -0.0070
Dy2_2 Dy -0.57929(2) 1.055967(15) 0.095825(11)
O8A O -0.4979(4) 0.8619(3) -0.22982(18)
O1A O -0.7062(4) 0.9561(2) -0.17570(18)
O9A O -0.3683(5) 1.0782(3) -0.1471(2)
O10A O -0.6135(4) 0.8072(3) -0.10021(19)
O2A_2 O -0.5959(4) 1.0697(2) -0.02599(17)
O4A O -0.0893(5) 1.0553(3) -0.1684(2)
O7_3 O -0.8399(4) 0.9712(2) 0.02415(16)
C1A C -0.6552(6) 0.8852(4) -0.2299(2)
Dy1A_3 Dy -0.88688(2) 1.037533(14) -0.078503(10)
C5A C -0.2394(6) 1.0747(4) -0.1853(3)
C6A C -0.5957(6) 0.7303(4) -0.0773(3)
H1A H -0.5438 1.1278 -0.0223
C2A C -0.7784(7) 0.8234(4) -0.2954(2)
O3A O -0.7286(5) 1.1672(3) -0.1306(2)
O4A_2 O -1.0893(5) 1.0553(3) -0.1684(2)
O5A_2 O -0.9728(4) 0.8638(2) -0.13149(18)
O6A_2 O -0.9252(5) 1.2066(2) -0.00368(19)
O7A_3 O -1.1601(4) 1.0288(2) -0.02415(16)
C9A C -0.2697(7) 1.0888(4) -0.2599(3)
C10A C -0.5299(6) 0.6348(4) -0.1309(3)
O12A O -0.6238(7) 0.7332(3) -0.0134(2)
C3A C -0.9491(7) 0.8449(4) -0.3037(3)
C4A C -0.7173(7) 0.7358(4) -0.3497(3)
H2A H -0.7381 1.2301 -0.1040
H3A H -0.7773 1.1551 -0.1742
C14A C -0.1307(8) 1.0980(4) -0.2994(3)
C15A C -0.4416(9) 1.0887(5) -0.2907(3)
C16A C -0.5011(7) 0.6291(4) -0.2025(3)
C17A C -0.4830(7) 0.5505(4) -0.1083(3)
H5A H -0.9935 0.9012 -0.2688
C8A C -1.0571(7) 0.7799(4) -0.3660(3)
H6A H -0.6016 0.7213 -0.3430
N1A N -0.8122(7) 0.6738(4) -0.4084(3)
H8A H -0.0166 1.0988 -0.2798
C23A C -0.1657(9) 1.1063(4) -0.3715(3)
H9A H -0.5342 1.0831 -0.2627
N2A N -0.4774(8) 1.0963(5) -0.3571(3)
H10A H -0.5295 0.6835 -0.2194
C24A C -0.4287(7) 0.5414(4) -0.2505(3)
H11A H -0.5031 0.5539 -0.0598
N3A N -0.4131(6) 0.4675(3) -0.1501(3)
C12A C -1.2350(8) 0.7956(5) -0.3791(3)
C13A C -0.9831(7) 0.6954(4) -0.4177(3)
C27A C -0.0265(11) 1.1173(5) -0.4155(4)
C28A C -0.3413(10) 1.1039(5) -0.3982(3)
C29A C -0.3950(9) 0.5319(5) -0.3248(3)
C30A C -0.3864(7) 0.4609(4) -0.2222(3)
H7A H -1.2866 0.8501 -0.3455
C21A C -1.3314(9) 0.7313(6) -0.4410(4)
C22A C -1.0868(9) 0.6300(5) -0.4818(3)
H16A H 0.0897 1.1192 -0.3980
C33A C -0.0695(13) 1.1252(6) -0.4850(4)
C34A C -0.3748(12) 1.1119(6) -0.4707(4)
H17A H -0.4225 0.5846 -0.3437
C35A C -0.3219(9) 0.4453(5) -0.3690(4)
C36A C -0.3119(8) 0.3717(4) -0.2694(4)
H13A H -1.4484 0.7422 -0.4492
C26A C -1.2560(10) 0.6485(6) -0.4925(4)
H14A H -1.0386 0.5747 -0.5161
H19A H 0.0191 1.1336 -0.5142
C39A C -0.2382(13) 1.1207(6) -0.5110(4)
H20A H -0.4891 1.1110 -0.4902
H21A H -0.2997 0.4393 -0.4176
C40A C -0.2806(8) 0.3656(4) -0.3404(4)
H22A H -0.2847 0.3177 -0.2518
H15A H -1.3235 0.6059 -0.5347
H27A H -0.2620 1.1238 -0.5587
H28A H -0.2307 0.3074 -0.3707
loop_
_geom_bond_atom_site_label_1
_geom_bond_atom_site_label_2
_geom_bond_site_symmetry_1
_geom_bond_site_symmetry_2
Dy1 O1 1_555 1_555
O1 C1 1_555 1_555
O2 Dy1 1_555 1_555
O3 Dy1 1_555 1_555
O4 Dy1 1_555 1_555
O5 Dy1 1_555 1_555
O6 Dy1 1_555 1_555
O7 Dy1 1_555 1_555
C1 C2 1_555 1_555
Dy2 O1 1_555 1_555
H1 O2 1_555 1_555
H2 O3 1_555 1_555
H3 O3 1_555 1_555
C2 C3 1_555 1_555
O8 C1 1_555 1_555
O9 Dy2 1_555 1_555
O10 Dy2 1_555 1_555
O11 Dy2 1_555 1_555
C3 H5 1_555 1_555
C4 C2 1_555 1_555
C5 O9 1_555 1_555
C6 O10 1_555 1_555
C7 O11 1_555 1_555
H4 O7_2 1_555 1_555
C8 C3 1_555 1_555
H6 C4 1_555 1_555
N1 C4 1_555 1_555
C9 C5 1_555 1_555
C10 C6 1_555 1_555
O12 C6 1_555 1_555
C11 C7 1_555 1_555
C12 C8 1_555 1_555
C13 C8 1_555 1_555
C14 C9 1_555 1_555
C15 C9 1_555 1_555
C16 C10 1_555 1_555
C17 C10 1_555 1_555
C18 C11 1_555 1_555
C19 C11 1_555 1_555
C20 C19 1_555 1_555
H7 C12 1_555 1_555
C21 C12 1_555 1_555
C22 C13 1_555 1_555
H8 C14 1_555 1_555
C23 C14 1_555 1_555
H9 C15 1_555 1_555
N2 C15 1_555 1_555
H10 C16 1_555 1_555
C24 C16 1_555 1_555
H11 C17 1_555 1_555
N3 C17 1_555 1_555
H12 C18 1_555 1_555
C25 C18 1_555 1_555
N4 C19 1_555 1_555
O13 C20 1_555 1_555
H13 C21 1_555 1_555
C26 C21 1_555 1_555
H14 C22 1_555 1_555
C27 C23 1_555 1_555
C28 C23 1_555 1_555
C29 C24 1_555 1_555
C30 C24 1_555 1_555
C31 C25 1_555 1_555
C32 C25 1_555 1_555
Co1 N4 1_555 1_555
H15 C26 1_555 1_555
H16 C27 1_555 1_555
C33 C27 1_555 1_555
C34 C28 1_555 1_555
H17 C29 1_555 1_555
C35 C29 1_555 1_555
C36 C30 1_555 1_555
H18 C31 1_555 1_555
C37 C31 1_555 1_555
C38 C32 1_555 1_555
O14 Co1 1_555 1_555
H19 C33 1_555 1_555
C39 C33 1_555 1_555
H20 C34 1_555 1_555
H21 C35 1_555 1_555
C40 C35 1_555 1_555
H22 C36 1_555 1_555
H23 C37 1_555 1_555
C41 C37 1_555 1_555
H24 C38 1_555 1_555
H25 O14 1_555 1_555
H26 O14 1_555 1_555
H27 C39 1_555 1_555
H28 C40 1_555 1_555
H29 C41 1_555 1_555
O7A Dy1 1_555 1_555
Dy2A O2 1_555 1_555
O7_2 Dy2 1_555 1_555
O2A Dy2 1_555 1_555
Dy1_2 O7_2 1_555 1_555
Dy1A O7_2 1_555 1_555
O4_2 C5 1_555 1_555
O5_2 C7 1_555 1_555
O6A C20 1_555 1_555
N4A Co1 1_555 1_555
O13A Co1 1_555 1_555
O14A Co1 1_555 1_555
C32A N4A 1_555 1_555
C19A N4A 1_555 1_555
C20A O13A 1_555 1_555
H25A O14A 1_555 1_555
H26A O14A 1_555 1_555
C25A C32A 1_555 1_555
C38A C32A 1_555 1_555
C11A C19A 1_555 1_555
O6_2 C20A 1_555 1_555
C18A C25A 1_555 1_555
C31A C25A 1_555 1_555
C41A C38A 1_555 1_555
H24A C38A 1_555 1_555
C7A C11A 1_555 1_555
Dy1_3 O6_2 1_555 1_555
H12A C18A 1_555 1_555
H18A C31A 1_555 1_555
C37A C31A 1_555 1_555
H29A C41A 1_555 1_555
O11A C7A 1_555 1_555
O5A C7A 1_555 1_555
O7A_2 Dy1_3 1_555 1_555
O2_2 Dy1_3 1_555 1_555
H23A C37A 1_555 1_555
Dy2A_2 O11A 1_555 1_555
Dy1A_2 O5A 1_555 1_555
H4A O7A_2 1_555 1_555
Dy2_2 O2_2 1_555 1_555
O8A Dy2A_2 1_555 1_555
O1A Dy2A_2 1_555 1_555
O9A Dy2A_2 1_555 1_555
O10A Dy2A_2 1_555 1_555
O2A_2 Dy2A_2 1_555 1_555
O4A Dy1A_2 1_555 1_555
O7_3 Dy2_2 1_555 1_555
C1A O8A 1_555 1_555
Dy1A_3 O1A 1_555 1_555
C5A O9A 1_555 1_555
C6A O10A 1_555 1_555
H1A O2A_2 1_555 1_555
C2A C1A 1_555 1_555
O3A Dy1A_3 1_555 1_555
O4A_2 Dy1A_3 1_555 1_555
O5A_2 Dy1A_3 1_555 1_555
O6A_2 Dy1A_3 1_555 1_555
O7A_3 Dy1A_3 1_555 1_555
C9A C5A 1_555 1_555
C10A C6A 1_555 1_555
O12A C6A 1_555 1_555
C3A C2A 1_555 1_555
C4A C2A 1_555 1_555
H2A O3A 1_555 1_555
H3A O3A 1_555 1_555
C14A C9A 1_555 1_555
C15A C9A 1_555 1_555
C16A C10A 1_555 1_555
C17A C10A 1_555 1_555
H5A C3A 1_555 1_555
C8A C3A 1_555 1_555
H6A C4A 1_555 1_555
N1A C4A 1_555 1_555
H8A C14A 1_555 1_555
C23A C14A 1_555 1_555
H9A C15A 1_555 1_555
N2A C15A 1_555 1_555
H10A C16A 1_555 1_555
C24A C16A 1_555 1_555
H11A C17A 1_555 1_555
N3A C17A 1_555 1_555
C12A C8A 1_555 1_555
C13A C8A 1_555 1_555
C27A C23A 1_555 1_555
C28A C23A 1_555 1_555
C29A C24A 1_555 1_555
C30A C24A 1_555 1_555
H7A C12A 1_555 1_555
C21A C12A 1_555 1_555
C22A C13A 1_555 1_555
H16A C27A 1_555 1_555
C33A C27A 1_555 1_555
C34A C28A 1_555 1_555
H17A C29A 1_555 1_555
C35A C29A 1_555 1_555
C36A C30A 1_555 1_555
H13A C21A 1_555 1_555
C26A C21A 1_555 1_555
H14A C22A 1_555 1_555
H19A C33A 1_555 1_555
C39A C33A 1_555 1_555
H20A C34A 1_555 1_555
H21A C35A 1_555 1_555
C40A C35A 1_555 1_555
H22A C36A 1_555 1_555
H15A C26A 1_555 1_555
H27A C39A 1_555 1_555
H28A C40A 1_555 1_555
O2 Dy2 1_555 1_555
Dy2 O8 1_555 1_555
N1 C13 1_555 1_555
C22 C26 1_555 1_555
N2 C28 1_555 1_555
N3 C30 1_555 1_555
N4 C32 1_555 1_555
O13 Co1 1_555 1_555
C34 C39 1_555 1_555
C36 C40 1_555 1_555
C38 C41 1_555 1_555
O7A Dy2A 1_555 1_555
Dy2A O2A 1_555 1_555
O2A Dy1A 1_555 1_555
Dy1_2 O4_2 1_555 1_555
Dy1_2 O5_2 1_555 1_555
Dy1A O6A 1_555 1_555
C19A C20A 1_555 1_555
C11A C18A 1_555 1_555
C41A C37A 1_555 1_555
O7A_2 Dy2A_2 1_555 1_555
O7A_2 Dy1A_2 1_555 1_555
O2_2 Dy2A_2 1_555 1_555
Dy2_2 O2A_2 1_555 1_555
O1A C1A 1_555 1_555
O2A_2 Dy1A_3 1_555 1_555
O4A C5A 1_555 1_555
O7_3 Dy1A_3 1_555 1_555
N1A C13A 1_555 1_555
N2A C28A 1_555 1_555
N3A C30A 1_555 1_555
C22A C26A 1_555 1_555
C34A C39A 1_555 1_555
C36A C40A 1_555 1_555

#END
