
#######################################################################
#
#                 Cambridge Crystallographic Data Centre
#                                CCDC 
#
#######################################################################
#
# If this CIF has been generated from an entry in the Cambridge 
# Structural Database, then it will include bibliographic, chemical, 
# crystal, experimental, refinement or atomic coordinate data resulting 
# from the CCDC's data processing and validation procedures.
#
#######################################################################

data_ZUFNAR
_symmetry_cell_setting           triclinic
_symmetry_space_group_name_H-M   'P -1'
_symmetry_Int_Tables_number      2
_space_group_name_Hall           '-P 1'
loop_
_symmetry_equiv_pos_site_id
_symmetry_equiv_pos_as_xyz
1 x,y,z
2 -x,-y,-z
_cell_length_a                   7.2589(5)
_cell_length_b                   7.6811(4)
_cell_length_c                   9.5333(5)
_cell_angle_alpha                92.229(5)
_cell_angle_beta                 100.823(5)
_cell_angle_gamma                117.809(6)
_cell_volume                     456.869
loop_
_atom_site_label
_atom_site_type_symbol
_atom_site_fract_x
_atom_site_fract_y
_atom_site_fract_z
Cu1 Cu 0.40302(6) 0.76077(5) 0.91845(4)
C1 C 0.3147(5) 0.9490(5) 1.3920(3)
C2 C 0.1132(5) 0.8933(5) 1.2768(3)
C3 C 0.4463(5) 0.7968(5) 1.2198(3)
C4 C 0.4689(5) 0.8991(5) 1.3654(3)
C5 C 0.3481(5) 1.0495(5) 1.5269(3)
H1 H 0.2464 1.0830 1.5454
O1 O 0.1026(5) 0.7086(5) 0.8989(3)
H2 H 0.0661 0.5881 0.8711
H3 H 0.0832 0.7171 0.9836
O2 O 0.0324(4) 0.7313(4) 1.1967(3)
O3 O 0.3229(6) 0.6177(5) 0.7172(4)
H4 H 0.4315 0.6673 0.6797
H5 H 0.2215 0.6308 0.6655
O4 O 0.0459(5) 1.0167(4) 1.2677(3)
O5 O 0.6846(5) 0.7649(5) 0.9573(3)
H6 H 0.7530 0.8150 1.0463
H7 H 0.7631 0.8366 0.9017
O6 O 0.4136(5) 0.6236(4) 1.2064(3)
O7 O 0.4700(4) 0.9026(3) 1.1181(2)
C1A C 0.6853(5) 1.0510(5) 1.6080(3)
C2A C 0.8868(5) 1.1067(5) 1.7232(3)
C3A C 0.5537(5) 1.2032(5) 1.7802(3)
C4A C 0.5311(5) 1.1009(5) 1.6346(3)
C5A C 0.6519(5) 0.9505(5) 1.4731(3)
H1A H 0.7536 0.9170 1.4546
O2A O 0.9676(4) 1.2687(4) 1.8033(3)
O4A O 0.9541(5) 0.9833(4) 1.7323(3)
O6A O 0.5864(5) 1.3764(4) 1.7936(3)
O7A O 0.5300(4) 1.0974(3) 1.8819(2)
Cu1A Cu 0.59698(6) 1.23923(5) 1.08155(4)
O1A O 0.8974(5) 1.2914(5) 1.1011(3)
H2A H 0.9339 1.4119 1.1289
H3A H 0.9168 1.2829 1.0164
O3A O 0.6771(6) 1.3823(5) 1.2828(4)
H4A H 0.5685 1.3327 1.3203
H5A H 0.7785 1.3692 1.3345
O5A O 0.3154(5) 1.2351(5) 1.0427(3)
H6A H 0.2470 1.1850 0.9537
H7A H 0.2369 1.1634 1.0983
Cu1_2 Cu 0.40302(6) 0.76077(5) 1.91845(4)
Cu1A_2 Cu 0.59698(6) 1.23923(5) 2.08155(4)
O7A_2 O 0.5300(4) 1.0974(3) 0.8819(2)
O8 O 0.1601(11) 0.3839(8) 0.4183(5)
H8 H 0.1681 0.4593 0.4895
H9 H 0.2837 0.3978 0.4196
loop_
_geom_bond_atom_site_label_1
_geom_bond_atom_site_label_2
_geom_bond_site_symmetry_1
_geom_bond_site_symmetry_2
Cu1 O1 1_555 1_555
C1 C2 1_555 1_555
C2 O2 1_555 1_555
C3 C4 1_555 1_555
C4 C1 1_555 1_555
C5 C1 1_555 1_555
H1 C5 1_555 1_555
O1 H2 1_555 1_555
H3 O1 1_555 1_555
O3 Cu1 1_555 1_555
H4 O3 1_555 1_555
H5 O3 1_555 1_555
O4 C2 1_555 1_555
O5 Cu1 1_555 1_555
H6 O5 1_555 1_555
H7 O5 1_555 1_555
O6 C3 1_555 1_555
O7 Cu1 1_555 1_555
O8 H8 1_555 1_555
H9 O8 1_555 1_555
C1A C2A 1_555 1_555
C2A O2A 1_555 1_555
C3A C4A 1_555 1_555
C4A C5 1_555 1_555
C5A C4 1_555 1_555
H1A C5A 1_555 1_555
O4A C2A 1_555 1_555
O6A C3A 1_555 1_555
O7A C3A 1_555 1_555
Cu1A O7 1_555 1_555
O1A Cu1A 1_555 1_555
H2A O1A 1_555 1_555
H3A O1A 1_555 1_555
O3A Cu1A 1_555 1_555
H4A O3A 1_555 1_555
H5A O3A 1_555 1_555
O5A Cu1A 1_555 1_555
H6A O5A 1_555 1_555
H7A O5A 1_555 1_555
Cu1_2 O7A 1_555 1_555
Cu1A_2 O7A 1_555 1_555
O7A_2 Cu1 1_555 1_555
C3 O7 1_555 1_555
C1A C4A 1_555 1_555
C1A C5A 1_555 1_555
Cu1A O7A_2 1_555 1_555

#END
