
#######################################################################
#
#                 Cambridge Crystallographic Data Centre
#                                CCDC 
#
#######################################################################
#
# If this CIF has been generated from an entry in the Cambridge 
# Structural Database, then it will include bibliographic, chemical, 
# crystal, experimental, refinement or atomic coordinate data resulting 
# from the CCDC's data processing and validation procedures.
#
#######################################################################

data_ZUGGUF
_symmetry_cell_setting           triclinic
_symmetry_space_group_name_H-M   'P -1'
_symmetry_Int_Tables_number      2
_space_group_name_Hall           '-P 1'
loop_
_symmetry_equiv_pos_site_id
_symmetry_equiv_pos_as_xyz
1 x,y,z
2 -x,-y,-z
_cell_length_a                   9.0863(3)
_cell_length_b                   9.2004(4)
_cell_length_c                   14.2638(6)
_cell_angle_alpha                102.2560(10)
_cell_angle_beta                 94.3340(10)
_cell_angle_gamma                100.7420(10)
_cell_volume                     1136.56
loop_
_atom_site_label
_atom_site_type_symbol
_atom_site_fract_x
_atom_site_fract_y
_atom_site_fract_z
Zn1 Zn 0.60946(2) 0.81130(2) 0.75145(2)
Cl1 Cl 0.77739(5) 0.86866(5) 0.88382(3)
Cl2 Cl 0.64987(5) 0.96536(5) 0.65089(3)
N1 N 0.13904(17) 0.51429(18) 0.90931(12)
N2 N 0.17053(14) 0.72897(15) 0.80013(11)
N3 N 0.28952(14) 0.69450(15) 0.75948(10)
N4 N 0.39946(14) 0.81559(14) 0.79160(10)
N5 N 0.92336(19) 1.3661(2) 0.56032(14)
N6 N 0.62924(15) 1.40498(15) 0.58123(10)
N7 N 0.63757(15) 1.55342(15) 0.60080(10)
N8 N 0.59791(14) 1.58815(14) 0.68841(10)
C1 C 0.1406(2) 0.4002(2) 0.95354(15)
H1 H 0.2088 0.4175 1.0087
C2 C 0.0480(2) 0.2595(2) 0.92262(15)
H2 H 0.0521 0.1841 0.9565
C3 C -0.0499(2) 0.2328(2) 0.84134(17)
H3 H -0.1133 0.1380 0.8178
C4 C -0.0541(2) 0.3475(2) 0.79426(16)
H4 H -0.1203 0.3315 0.7383
C5 C 0.04068(17) 0.48668(19) 0.83086(13)
C6 C 0.02920(18) 0.6155(2) 0.78228(15)
H5 H 0.0034 0.5750 0.7132
H6 H -0.0511 0.6640 0.8061
C7 C 0.20134(19) 0.86925(18) 0.85718(14)
H7 H 0.1356 0.9176 0.8930
C8 C 0.34967(18) 0.92672(17) 0.85176(12)
C9 C 0.4455(2) 1.07976(17) 0.89393(12)
H8 H 0.5502 1.0710 0.9019
H9 H 0.4178 1.1187 0.9574
C10 C 0.42939(19) 1.19231(17) 0.83080(13)
H10 H 0.4499 1.1504 0.7659
H11 H 0.3266 1.2077 0.8269
C11 C 0.5372(2) 1.34402(18) 0.87155(13)
H12 H 0.6396 1.3296 0.8661
H13 H 0.5278 1.3759 0.9398
C12 C 0.5130(2) 1.47129(19) 0.82296(13)
H14 H 0.4063 1.4727 0.8176
H15 H 0.5657 1.5672 0.8649
C13 C 0.56386(17) 1.46224(17) 0.72461(12)
C14 C 0.58504(19) 1.34369(18) 0.65432(13)
H16 H 0.5716 1.2419 0.6568
C15 C 0.6645(2) 1.3282(2) 0.48749(13)
H17 H 0.6629 1.3949 0.4433
H18 H 0.5867 1.2376 0.4616
C16 C 0.8161(2) 1.2834(2) 0.49241(13)
C17 C 0.8392(3) 1.1632(3) 0.42216(17)
H19 H 0.7608 1.1047 0.3761
C18 C 0.9840(4) 1.1330(3) 0.4229(2)
H20 H 1.0047 1.0548 0.3760
C19 C 1.0950(3) 1.2189(4) 0.4930(2)
H21 H 1.1923 1.2006 0.4950
C20 C 1.0602(3) 1.3316(3) 0.5597(2)
H22 H 1.1359 1.3886 0.6081
Zn1_2 Zn 0.60946(2) 1.81130(2) 0.75145(2)
N8_2 N 0.59791(14) 0.58815(14) 0.68841(10)
loop_
_geom_bond_atom_site_label_1
_geom_bond_atom_site_label_2
_geom_bond_site_symmetry_1
_geom_bond_site_symmetry_2
Zn1 Cl1 1_555 1_555
Cl2 Zn1 1_555 1_555
N1 C1 1_555 1_555
N2 N3 1_555 1_555
N3 N4 1_555 1_555
N4 Zn1 1_555 1_555
N5 C16 1_555 1_555
N6 N7 1_555 1_555
N7 N8 1_555 1_555
N8 C13 1_555 1_555
C1 H1 1_555 1_555
C2 C1 1_555 1_555
H2 C2 1_555 1_555
C3 C2 1_555 1_555
H3 C3 1_555 1_555
C4 C3 1_555 1_555
H4 C4 1_555 1_555
C5 N1 1_555 1_555
C6 N2 1_555 1_555
H5 C6 1_555 1_555
H6 C6 1_555 1_555
C7 N2 1_555 1_555
H7 C7 1_555 1_555
C8 N4 1_555 1_555
C9 C8 1_555 1_555
H8 C9 1_555 1_555
H9 C9 1_555 1_555
C10 C9 1_555 1_555
H10 C10 1_555 1_555
H11 C10 1_555 1_555
C11 C10 1_555 1_555
H12 C11 1_555 1_555
H13 C11 1_555 1_555
C12 C11 1_555 1_555
H14 C12 1_555 1_555
H15 C12 1_555 1_555
C13 C12 1_555 1_555
C14 N6 1_555 1_555
H16 C14 1_555 1_555
C15 N6 1_555 1_555
H17 C15 1_555 1_555
H18 C15 1_555 1_555
C16 C15 1_555 1_555
C17 C16 1_555 1_555
H19 C17 1_555 1_555
C18 C17 1_555 1_555
H20 C18 1_555 1_555
C19 C18 1_555 1_555
H21 C19 1_555 1_555
C20 N5 1_555 1_555
H22 C20 1_555 1_555
Zn1_2 N8 1_555 1_555
N8_2 Zn1 1_555 1_555
C4 C5 1_555 1_555
C5 C6 1_555 1_555
C7 C8 1_555 1_555
C13 C14 1_555 1_555
C19 C20 1_555 1_555

#END
