
#######################################################################
#
#                 Cambridge Crystallographic Data Centre
#                                CCDC 
#
#######################################################################
#
# If this CIF has been generated from an entry in the Cambridge 
# Structural Database, then it will include bibliographic, chemical, 
# crystal, experimental, refinement or atomic coordinate data resulting 
# from the CCDC's data processing and validation procedures.
#
#######################################################################

data_ZUGREA
_symmetry_cell_setting           triclinic
_symmetry_space_group_name_H-M   'P -1'
_symmetry_Int_Tables_number      2
_space_group_name_Hall           '-P 1'
loop_
_symmetry_equiv_pos_site_id
_symmetry_equiv_pos_as_xyz
1 x,y,z
2 -x,-y,-z
_cell_length_a                   8.7910(9)
_cell_length_b                   11.0029(11)
_cell_length_c                   18.8710(19)
_cell_angle_alpha                90.1720(10)
_cell_angle_beta                 101.9580(10)
_cell_angle_gamma                103.5000(10)
_cell_volume                     1733.84
loop_
_atom_site_label
_atom_site_type_symbol
_atom_site_fract_x
_atom_site_fract_y
_atom_site_fract_z
C1 C 0.3407(3) 0.0915(3) 0.19741(17)
C2 C 0.5190(3) 0.1516(3) 0.21201(17)
H1 H 0.5433 0.1908 0.1684
H2 H 0.5761 0.0857 0.2208
C3 C 0.5585(3) 0.4024(3) 0.24658(16)
C4 C 0.4749(3) 0.5698(3) 0.18226(16)
C5 C 0.5092(3) 0.8146(3) 0.15988(18)
H3 H 0.4665 0.8790 0.1334
H4 H 0.4976 0.8229 0.2095
C6 C 0.6859(3) 0.8402(3) 0.16015(16)
C7 C -0.0737(3) -0.1757(2) 0.34741(14)
H5 H -0.1586 -0.2218 0.3126
C8 C 0.0834(3) -0.1111(2) 0.45386(14)
C9 C 0.1394(3) -0.0394(2) 0.39948(14)
C10 C 0.2775(3) 0.0574(2) 0.41779(14)
H6 H 0.3183 0.1037 0.3818
C11 C 0.3527(3) 0.0838(2) 0.48959(15)
C12 C 0.2914(3) 0.0137(3) 0.54429(15)
C13 C 0.1570(3) -0.0850(3) 0.52602(15)
H7 H 0.1173 -0.1327 0.5617
C14 C 0.3713(4) 0.0440(3) 0.62404(16)
H8 H 0.4755 0.0266 0.6331
H9 H 0.3071 -0.0063 0.6535
H10 H 0.3818 0.1310 0.6358
C15 C 0.5014(3) 0.1893(3) 0.50881(17)
H11 H 0.5313 0.2216 0.4652
H12 H 0.5872 0.1587 0.5372
H13 H 0.4803 0.2548 0.5363
C16 C -0.1517(3) -0.2984(3) 0.45196(17)
H14 H -0.2509 -0.3332 0.4173
H15 H -0.1784 -0.2621 0.4933
C17 C -0.0712(3) -0.4023(2) 0.47667(14)
C18 C -0.0668(3) -0.4936(3) 0.42765(15)
H16 H -0.1121 -0.4901 0.3788
C19 C -0.0042(4) -0.4097(3) 0.54968(15)
H17 H -0.0074 -0.3491 0.5834
C20 C -0.1233(3) 0.1847(3) 0.15619(15)
H18 H -0.1921 0.1217 0.1240
C21 C -0.0028(3) 0.3717(2) 0.20577(14)
C22 C 0.0592(3) 0.2816(2) 0.24509(14)
C23 C 0.1819(3) 0.3186(2) 0.30662(14)
H19 H 0.2249 0.2591 0.3334
C24 C 0.2387(3) 0.4441(3) 0.32725(15)
C25 C 0.1740(3) 0.5348(3) 0.28655(16)
C26 C 0.0530(3) 0.4990(3) 0.22529(16)
H20 H 0.0104 0.5582 0.1980
C27 C 0.2379(4) 0.6728(3) 0.3087(2)
H21 H 0.2123 0.6897 0.3542
H22 H 0.1899 0.7213 0.2723
H23 H 0.3520 0.6949 0.3136
C28 C 0.3701(4) 0.4829(3) 0.39370(18)
H24 H 0.4007 0.4101 0.4141
H25 H 0.3328 0.5253 0.4288
H26 H 0.4609 0.5382 0.3808
C29 C -0.2080(3) 0.3650(3) 0.08921(16)
H27 H -0.2600 0.4222 0.1086
H28 H -0.2906 0.3004 0.0591
C30 C -0.0984(3) 0.4352(3) 0.04337(14)
C31 C -0.1095(4) 0.5535(3) 0.02238(17)
H29 H -0.1830 0.5907 0.0375
C32 C 0.0127(4) 0.3839(3) 0.02060(17)
H30 H 0.0224 0.3046 0.0347
N1 N 0.5845(3) 0.6090(2) 0.24051(14)
N2 N 0.6338(3) 0.5121(2) 0.27817(14)
N3 N 0.0359(2) -0.08134(19) 0.33231(11)
N4 N -0.0504(2) -0.19853(19) 0.41807(12)
N5 N -0.0195(3) 0.1632(2) 0.21263(12)
N6 N -0.1206(3) 0.3071(2) 0.14942(12)
O1 O 0.2754(2) 0.06565(19) 0.24867(11)
O2 O 0.0389(3) -0.1385(2) 0.15940(13)
H31 H 0.0962 -0.1053 0.1283
H32 H -0.0574 -0.1740 0.1348
O3 O 0.285(2) 0.044(4) 0.1337(5)
O4 O 0.7745(2) 0.91828(17) 0.20830(10)
O5 O 0.7321(3) 0.7861(3) 0.11298(14)
S1 S 0.59666(9) 0.26713(7) 0.28686(5)
S2 S 0.41819(9) 0.40842(7) 0.16805(4)
S3 S 0.38861(9) 0.66440(8) 0.12133(5)
Co1 Co 0.03062(4) -0.00811(3) 0.232643(19)
C7A C 0.0737(3) -0.8243(2) 0.65259(14)
H5A H 0.1586 -0.7782 0.6874
C8A C -0.0834(3) -0.8889(2) 0.54614(14)
C9A C -0.1394(3) -0.9606(2) 0.60052(14)
C10A C -0.2775(3) -1.0574(2) 0.58221(14)
H6A H -0.3183 -1.1037 0.6182
C11A C -0.3527(3) -1.0838(2) 0.51041(15)
C12A C -0.2914(3) -1.0137(3) 0.45571(15)
C13A C -0.1570(3) -0.9150(3) 0.47398(15)
H7A H -0.1173 -0.8673 0.4383
C14A C -0.3713(4) -1.0440(3) 0.37596(16)
H8A H -0.4755 -1.0266 0.3669
H9A H -0.3071 -0.9937 0.3465
H10A H -0.3818 -1.1310 0.3642
C15A C -0.5014(3) -1.1893(3) 0.49119(17)
H11A H -0.5313 -1.2216 0.5348
H12A H -0.5872 -1.1587 0.4628
H13A H -0.4803 -1.2548 0.4637
C16A C 0.1517(3) -0.7016(3) 0.54804(17)
H14A H 0.2509 -0.6668 0.5827
H15A H 0.1784 -0.7379 0.5067
C17A C 0.0712(3) -0.5977(2) 0.52333(14)
C18A C 0.0668(3) -0.5064(3) 0.57235(15)
H16A H 0.1121 -0.5099 0.6212
C19A C 0.0042(4) -0.5903(3) 0.45032(15)
H17A H 0.0074 -0.6509 0.4166
N3A N -0.0359(2) -0.91866(19) 0.66769(11)
N4A N 0.0504(2) -0.80147(19) 0.58193(12)
C20A C 0.1233(3) 0.8153(3) -0.15619(15)
H18A H 0.1921 0.8783 -0.1240
C21A C 0.0028(3) 0.6283(2) -0.20577(14)
C22A C -0.0592(3) 0.7184(2) -0.24509(14)
C23A C -0.1819(3) 0.6814(2) -0.30662(14)
H19A H -0.2249 0.7409 -0.3334
C24A C -0.2387(3) 0.5559(3) -0.32725(15)
C25A C -0.1740(3) 0.4652(3) -0.28655(16)
C26A C -0.0530(3) 0.5010(3) -0.22529(16)
H20A H -0.0104 0.4418 -0.1980
C27A C -0.2379(4) 0.3272(3) -0.3087(2)
H21A H -0.2123 0.3103 -0.3542
H22A H -0.1899 0.2787 -0.2723
H23A H -0.3520 0.3051 -0.3136
C28A C -0.3701(4) 0.5171(3) -0.39370(18)
H24A H -0.4007 0.5899 -0.4141
H25A H -0.3328 0.4747 -0.4288
H26A H -0.4609 0.4618 -0.3808
C29A C 0.2080(3) 0.6350(3) -0.08921(16)
H27A H 0.2600 0.5778 -0.1086
H28A H 0.2906 0.6996 -0.0591
C30A C 0.0984(3) 0.5648(3) -0.04337(14)
C31A C 0.1095(4) 0.4465(3) -0.02238(17)
H29A H 0.1830 0.4093 -0.0375
C32A C -0.0127(4) 0.6161(3) -0.02060(17)
H30A H -0.0224 0.6954 -0.0347
N5A N 0.0195(3) 0.8368(2) -0.21263(12)
N6A N 0.1206(3) 0.6929(2) -0.14942(12)
C1A C -0.3407(3) -1.0915(3) 0.80259(17)
C2A C -0.5190(3) -1.1516(3) 0.78799(17)
H1A H -0.5433 -1.1908 0.8316
H2A H -0.5761 -1.0857 0.7792
C3A C -0.5585(3) -1.4024(3) 0.75342(16)
C4A C -0.4749(3) -1.5698(3) 0.81774(16)
C5A C -0.5092(3) -1.8146(3) 0.84012(18)
H3A H -0.4665 -1.8790 0.8666
H4A H -0.4976 -1.8229 0.7905
C6A C -0.6859(3) -1.8402(3) 0.83985(16)
N1A N -0.5845(3) -1.6090(2) 0.75949(14)
N2A N -0.6338(3) -1.5121(2) 0.72183(14)
O1A O -0.2754(2) -1.06565(19) 0.75133(11)
O2A O -0.0389(3) -0.8615(2) 0.84060(13)
H31A H -0.0962 -0.8947 0.8717
H32A H 0.0574 -0.8260 0.8652
O3A O -0.285(2) -1.044(4) 0.8663(5)
O4A O -0.7745(2) -1.91828(17) 0.79170(10)
O5A O -0.7321(3) -1.7861(3) 0.88702(14)
S1A S -0.59666(9) -1.26713(7) 0.71314(5)
S2A S -0.41819(9) -1.40842(7) 0.83195(4)
S3A S -0.38861(9) -1.66440(8) 0.87867(5)
Co1A Co -0.03062(4) -0.99189(3) 0.767357(19)
N5A_2 N 0.0195(3) -1.1632(2) 0.78737(12)
O4_2 O -0.2255(2) -0.08172(17) 0.20830(10)
O4A_2 O 0.2255(2) -0.91828(17) 0.79170(10)
Co1_2 Co 1.03062(4) 0.99189(3) 0.232643(19)
Co1A_2 Co -1.03062(4) -1.99189(3) 0.767357(19)
Co1A_3 Co -0.03062(4) 1.00811(3) -0.232643(19)
O7 O 0.4339(7) 0.1680(8) 0.0271(3)
O6? O 0.256(3) 0.108(6) 0.1354(10)
O8? O 0.5966(17) 0.0589(17) 0.0194(6)
loop_
_geom_bond_atom_site_label_1
_geom_bond_atom_site_label_2
_geom_bond_site_symmetry_1
_geom_bond_site_symmetry_2
C1 C2 1_555 1_555
C2 H1 1_555 1_555
H2 C2 1_555 1_555
C3 N2 1_555 1_555
C4 N1 1_555 1_555
C5 H3 1_555 1_555
H4 C5 1_555 1_555
C6 C5 1_555 1_555
C7 H5 1_555 1_555
C8 C9 1_555 1_555
C9 C10 1_555 1_555
C10 H6 1_555 1_555
C11 C10 1_555 1_555
C12 C11 1_555 1_555
C13 C8 1_555 1_555
H7 C13 1_555 1_555
C14 C12 1_555 1_555
H8 C14 1_555 1_555
H9 C14 1_555 1_555
H10 C14 1_555 1_555
C15 C11 1_555 1_555
H11 C15 1_555 1_555
H12 C15 1_555 1_555
H13 C15 1_555 1_555
C16 H14 1_555 1_555
H15 C16 1_555 1_555
C17 C16 1_555 1_555
C18 C17 1_555 1_555
H16 C18 1_555 1_555
C19 C17 1_555 1_555
H17 C19 1_555 1_555
C20 H18 1_555 1_555
C21 C22 1_555 1_555
C22 C23 1_555 1_555
C23 H19 1_555 1_555
C24 C23 1_555 1_555
C25 C24 1_555 1_555
C26 C21 1_555 1_555
H20 C26 1_555 1_555
C27 C25 1_555 1_555
H21 C27 1_555 1_555
H22 C27 1_555 1_555
H23 C27 1_555 1_555
C28 C24 1_555 1_555
H24 C28 1_555 1_555
H25 C28 1_555 1_555
H26 C28 1_555 1_555
C29 H27 1_555 1_555
H28 C29 1_555 1_555
C30 C29 1_555 1_555
C31 C30 1_555 1_555
H29 C31 1_555 1_555
C32 C30 1_555 1_555
H30 C32 1_555 1_555
N1 N2 1_555 1_555
N3 C7 1_555 1_555
N4 C7 1_555 1_555
N5 C20 1_555 1_555
N6 C20 1_555 1_555
O1 C1 1_555 1_555
O2 H31 1_555 1_555
H32 O2 1_555 1_555
O3 C1 1_555 1_555
O4 C6 1_555 1_555
O5 C6 1_555 1_555
S1 C2 1_555 1_555
S2 C3 1_555 1_555
S3 C4 1_555 1_555
Co1 N3 1_555 1_555
C7A H5A 1_555 1_555
C8A C9A 1_555 1_555
C9A C10A 1_555 1_555
C10A H6A 1_555 1_555
C11A C10A 1_555 1_555
C12A C11A 1_555 1_555
C13A C8A 1_555 1_555
H7A C13A 1_555 1_555
C14A C12A 1_555 1_555
H8A C14A 1_555 1_555
H9A C14A 1_555 1_555
H10A C14A 1_555 1_555
C15A C11A 1_555 1_555
H11A C15A 1_555 1_555
H12A C15A 1_555 1_555
H13A C15A 1_555 1_555
C16A H14A 1_555 1_555
H15A C16A 1_555 1_555
C17A C16A 1_555 1_555
C18A C19 1_555 1_555
H16A C18A 1_555 1_555
C19A C18 1_555 1_555
H17A C19A 1_555 1_555
N3A C7A 1_555 1_555
N4A C7A 1_555 1_555
C20A H18A 1_555 1_555
C21A C22A 1_555 1_555
C22A C23A 1_555 1_555
C23A H19A 1_555 1_555
C24A C23A 1_555 1_555
C25A C24A 1_555 1_555
C26A C21A 1_555 1_555
H20A C26A 1_555 1_555
C27A C25A 1_555 1_555
H21A C27A 1_555 1_555
H22A C27A 1_555 1_555
H23A C27A 1_555 1_555
C28A C24A 1_555 1_555
H24A C28A 1_555 1_555
H25A C28A 1_555 1_555
H26A C28A 1_555 1_555
C29A H27A 1_555 1_555
H28A C29A 1_555 1_555
C30A C29A 1_555 1_555
C31A C32 1_555 1_555
H29A C31A 1_555 1_555
C32A C31 1_555 1_555
H30A C32A 1_555 1_555
N5A C20A 1_555 1_555
N6A C20A 1_555 1_555
C1A C2A 1_555 1_555
C2A H1A 1_555 1_555
H2A C2A 1_555 1_555
C3A N2A 1_555 1_555
C4A N1A 1_555 1_555
C5A H3A 1_555 1_555
H4A C5A 1_555 1_555
C6A C5A 1_555 1_555
N1A N2A 1_555 1_555
O1A C1A 1_555 1_555
O2A H31A 1_555 1_555
H32A O2A 1_555 1_555
O3A C1A 1_555 1_555
O4A C6A 1_555 1_555
O5A C6A 1_555 1_555
S1A C2A 1_555 1_555
S2A C3A 1_555 1_555
S3A C4A 1_555 1_555
Co1A N3A 1_555 1_555
N5A_2 Co1A 1_555 1_555
O4_2 Co1 1_555 1_555
O4A_2 Co1A 1_555 1_555
Co1_2 O4 1_555 1_555
Co1A_2 O4A 1_555 1_555
Co1A_3 N5A 1_555 1_555
C3 S1 1_555 1_555
C4 S2 1_555 1_555
C5 S3 1_555 1_555
C8 N4 1_555 1_555
C9 N3 1_555 1_555
C12 C13 1_555 1_555
C16 N4 1_555 1_555
C21 N6 1_555 1_555
C22 N5 1_555 1_555
C25 C26 1_555 1_555
C29 N6 1_555 1_555
N5 Co1 1_555 1_555
O1 Co1 1_555 1_555
O2 Co1 1_555 1_555
C8A N4A 1_555 1_555
C9A N3A 1_555 1_555
C12A C13A 1_555 1_555
C16A N4A 1_555 1_555
C17A C18A 1_555 1_555
C17A C19A 1_555 1_555
C21A N6A 1_555 1_555
C22A N5A 1_555 1_555
C25A C26A 1_555 1_555
C29A N6A 1_555 1_555
C30A C31A 1_555 1_555
C30A C32A 1_555 1_555
C3A S1A 1_555 1_555
C4A S2A 1_555 1_555
C5A S3A 1_555 1_555
O1A Co1A 1_555 1_555
O2A Co1A 1_555 1_555

#END
