
#######################################################################
#
#                 Cambridge Crystallographic Data Centre
#                                CCDC 
#
#######################################################################
#
# If this CIF has been generated from an entry in the Cambridge 
# Structural Database, then it will include bibliographic, chemical, 
# crystal, experimental, refinement or atomic coordinate data resulting 
# from the CCDC's data processing and validation procedures.
#
#######################################################################

data_ZUGXOO
_symmetry_cell_setting           monoclinic
_symmetry_space_group_name_H-M   'P 21/n'
_symmetry_Int_Tables_number      14
_space_group_name_Hall           '-P 2yn'
loop_
_symmetry_equiv_pos_site_id
_symmetry_equiv_pos_as_xyz
1 x,y,z
2 1/2-x,1/2+y,1/2-z
3 -x,-y,-z
4 1/2+x,1/2-y,1/2+z
_cell_length_a                   6.595(2)
_cell_length_b                   9.964(2)
_cell_length_c                   17.821(2)
_cell_angle_alpha                90
_cell_angle_beta                 94.76(2)
_cell_angle_gamma                90
_cell_volume                     1167.02
loop_
_atom_site_label
_atom_site_type_symbol
_atom_site_fract_x
_atom_site_fract_y
_atom_site_fract_z
Sn1 Sn 0.1633(1) 0.1513(1) 0.2226(1)
C1 C 0.0474(5) 0.4195(3) 0.1497(2)
O1 O 0.1844(4) 0.4714(3) 0.1908(2)
O2 O 0.0128(4) 0.2930(2) 0.1463(1)
N1 N -0.3560(4) 0.6542(3) 0.0001(2)
C2 C -0.1817(5) 0.7039(3) 0.0311(2)
C3 C -0.0471(5) 0.6340(3) 0.0805(2)
C4 C -0.0933(4) 0.5015(3) 0.0975(2)
C5 C -0.2726(4) 0.4475(3) 0.0647(2)
C6 C -0.4015(4) 0.5260(3) 0.0172(2)
C7 C 0.0030(8) -0.0053(4) 0.1654(3)
C8 C 0.4641(6) 0.1836(4) 0.1960(3)
C9 C 0.0313(6) 0.2288(5) 0.3173(2)
H1 H -0.1477 0.7946 0.0190
H2 H 0.0751 0.6756 0.1024
H3 H -0.3079 0.3562 0.0750
H4 H 0.0416 -0.0894 0.1886
H5 H 0.0354 -0.0061 0.1139
H6 H -0.1406 0.0081 0.1673
H7 H 0.5544 0.1260 0.2262
H8 H 0.5011 0.2755 0.2057
H9 H 0.4741 0.1639 0.1437
H10 H 0.0789 0.1782 0.3611
H11 H -0.1141 0.2219 0.3096
H12 H 0.0692 0.3212 0.3243
O1A O 0.3156(4) -0.0286(3) 0.3092(2)
Sn1A Sn 0.3367(1) 0.6513(1) 0.2774(1)
C6B C -0.5985(4) 0.4740(3) -0.0172(2)
N1B N -0.6440(4) 0.3458(3) -0.0001(2)
C5B C -0.7274(4) 0.5525(3) -0.0647(2)
C2B C -0.8183(5) 0.2961(3) -0.0311(2)
C4B C -0.9067(4) 0.4985(3) -0.0975(2)
H3B H -0.6921 0.6438 -0.0750
C3B C -0.9529(5) 0.3660(3) -0.0805(2)
H1B H -0.8523 0.2054 -0.0190
C1B C -1.0474(5) 0.5805(3) -0.1497(2)
H2B H -1.0751 0.3244 -0.1024
O1B O -1.1844(4) 0.5286(3) -0.1908(2)
O2B O -1.0128(4) 0.7070(2) -0.1463(1)
Sn1C Sn -1.3367(1) 0.3487(1) -0.2774(1)
Sn1B Sn -1.1633(1) 0.8487(1) -0.2226(1)
O2C O -1.4872(4) 0.2070(2) -0.3537(1)
C7C C -1.4970(8) 0.5053(4) -0.3346(3)
C8C C -1.0359(6) 0.3164(4) -0.3040(3)
C9C C -1.4687(6) 0.2712(5) -0.1827(2)
H4C H -1.4584 0.5894 -0.3114
H5C H -1.4646 0.5061 -0.3861
H6C H -1.6406 0.4919 -0.3327
H7C H -0.9456 0.3740 -0.2738
H8C H -0.9989 0.2245 -0.2943
H9C H -1.0259 0.3361 -0.3563
H10C H -1.4211 0.3218 -0.1389
H11C H -1.6141 0.2781 -0.1904
H12C H -1.4308 0.1788 -0.1757
loop_
_geom_bond_atom_site_label_1
_geom_bond_atom_site_label_2
_geom_bond_site_symmetry_1
_geom_bond_site_symmetry_2
Sn1 O2 1_555 1_555
C1 O1 1_555 1_555
O1 Sn1A 1_555 1_555
O2 C1 1_555 1_555
N1 C2 1_555 1_555
C2 C3 1_555 1_555
C3 C4 1_555 1_555
C4 C1 1_555 1_555
C5 C4 1_555 1_555
C6 N1 1_555 1_555
C7 Sn1 1_555 1_555
C8 Sn1 1_555 1_555
C9 Sn1 1_555 1_555
H1 C2 1_555 1_555
H2 C3 1_555 1_555
H3 C5 1_555 1_555
H4 C7 1_555 1_555
H5 C7 1_555 1_555
H6 C7 1_555 1_555
H7 C8 1_555 1_555
H8 C8 1_555 1_555
H9 C8 1_555 1_555
H10 C9 1_555 1_555
H11 C9 1_555 1_555
H12 C9 1_555 1_555
O1A Sn1 1_555 1_555
C6B C6 1_555 1_555
N1B C6B 1_555 1_555
C5B C6B 1_555 1_555
C2B N1B 1_555 1_555
C4B C5B 1_555 1_555
H3B C5B 1_555 1_555
C3B C2B 1_555 1_555
H1B C2B 1_555 1_555
C1B C4B 1_555 1_555
H2B C3B 1_555 1_555
O1B C1B 1_555 1_555
O2B C1B 1_555 1_555
Sn1C O1B 1_555 1_555
Sn1B O2B 1_555 1_555
O2C Sn1C 1_555 1_555
C7C Sn1C 1_555 1_555
C8C Sn1C 1_555 1_555
C9C Sn1C 1_555 1_555
H4C C7C 1_555 1_555
H5C C7C 1_555 1_555
H6C C7C 1_555 1_555
H7C C8C 1_555 1_555
H8C C8C 1_555 1_555
H9C C8C 1_555 1_555
H10C C9C 1_555 1_555
H11C C9C 1_555 1_555
H12C C9C 1_555 1_555
C5 C6 1_555 1_555
C4B C3B 1_555 1_555

#END
