
#######################################################################
#
#                 Cambridge Crystallographic Data Centre
#                                CCDC 
#
#######################################################################
#
# If this CIF has been generated from an entry in the Cambridge 
# Structural Database, then it will include bibliographic, chemical, 
# crystal, experimental, refinement or atomic coordinate data resulting 
# from the CCDC's data processing and validation procedures.
#
#######################################################################

data_ZUGYEH
_symmetry_cell_setting           orthorhombic
_symmetry_space_group_name_H-M   'P b c a'
_symmetry_Int_Tables_number      61
_space_group_name_Hall           '-P 2ac 2ab'
loop_
_symmetry_equiv_pos_site_id
_symmetry_equiv_pos_as_xyz
1 x,y,z
2 1/2-x,-y,1/2+z
3 1/2+x,1/2-y,-z
4 -x,1/2+y,1/2-z
5 -x,-y,-z
6 1/2+x,y,1/2-z
7 1/2-x,1/2+y,z
8 x,1/2-y,1/2+z
_cell_length_a                   14.875(3)
_cell_length_b                   13.809(3)
_cell_length_c                   25.736(5)
_cell_angle_alpha                90
_cell_angle_beta                 90
_cell_angle_gamma                90
_cell_volume                     5286.4
loop_
_atom_site_label
_atom_site_type_symbol
_atom_site_fract_x
_atom_site_fract_y
_atom_site_fract_z
Cd1 Cd 0.840604(17) 0.078588(18) 1.082353(9)
O1 O 0.9871(2) 0.0152(2) 1.08526(11)
O2 O 0.7584(3) 0.2059(2) 1.11818(13)
O3 O 0.9698(2) 0.1403(2) 1.12970(12)
O4 O 0.6845(2) 0.1190(4) 1.06823(17)
N1 N 0.8080(2) -0.0360(2) 1.01602(11)
N2 N 1.0227(3) 0.0765(3) 1.11531(16)
N3 N 0.7915(2) -0.1715(2) 0.83620(10)
N4 N 0.8080(2) -0.3123(2) 0.88831(11)
N5 N 0.8205(2) -0.4869(2) 0.66075(11)
N6 N 0.7984(2) -0.2246(2) 0.79388(10)
N7 N 0.8142(2) -0.3657(2) 0.84571(11)
N8 N 1.1035(3) 0.6852(3) 0.70170(14)
N9 N 0.8924(2) 0.1925(2) 1.01834(11)
N10 N 1.0226(4) 0.4109(3) 0.81868(14)
N11 N 1.0135(2) 0.5445(2) 0.87583(12)
N12 N 0.9883(3) 0.4854(3) 0.91449(12)
N13 N 0.6845(3) 0.1912(4) 1.09697(19)
N14 N 0.9996(3) 0.3523(3) 0.85683(13)
C1 C 0.9810(3) 0.3926(3) 0.90337(15)
C2 C 0.8166(2) -0.3795(3) 0.75249(13)
C3 C 0.7977(2) -0.2170(2) 0.88200(12)
C4 C 0.8430(3) -0.3928(3) 0.66211(16)
H1 H 0.8611 -0.3637 0.6312
C5 C 0.7626(2) -0.0094(3) 0.97375(13)
H2 H 0.7329 0.0499 0.9742
C6 C 0.9427(3) 0.2274(3) 0.93268(15)
H3 H 0.9555 0.2049 0.8994
C7 C 0.8457(2) -0.1241(3) 1.01545(14)
H4 H 0.8774 -0.1440 1.0447
C8 C 0.8402(2) -0.1863(3) 0.97392(13)
H5 H 0.8649 -0.2480 0.9759
C9 C 0.7975(3) -0.4782(3) 0.75209(13)
H6 H 0.7833 -0.5104 0.7828
C10 C 0.7569(3) -0.0652(3) 0.92952(14)
H7 H 0.7267 -0.0424 0.9003
C11 C 0.9143(3) 0.1649(3) 0.97052(14)
H8 H 0.9099 0.0995 0.9623
C12 C 0.9024(3) 0.2864(3) 1.02984(14)
H9 H 0.8875 0.3073 1.0631
C13 C 0.8103(2) -0.3210(3) 0.79982(13)
C14 C 0.7970(2) -0.1558(2) 0.92931(12)
C15 C 0.9524(2) 0.3241(3) 0.94433(13)
C16 C 1.0676(3) 0.5300(3) 0.73648(15)
H10 H 1.0607 0.4639 0.7306
C17 C 1.0858(3) 0.7218(4) 0.74825(17)
H11 H 1.0903 0.7886 0.7521
C18 C 0.9334(3) 0.3539(3) 0.99450(14)
H12 H 0.9414 0.4182 1.0042
C19 C 1.0268(3) 0.5059(3) 0.82905(15)
C20 C 1.0925(3) 0.5911(3) 0.69707(17)
H13 H 1.1025 0.5639 0.6645
C21 C 0.7996(3) -0.5275(3) 0.70554(13)
H14 H 0.7859 -0.5932 0.7057
C22 C 0.8413(3) -0.3372(3) 0.70606(15)
H15 H 0.8567 -0.2720 0.7047
C23 C 1.0607(3) 0.6680(3) 0.79170(16)
H16 H 1.0500 0.6974 0.8236
C24 C 1.0525(3) 0.5692(3) 0.78531(15)
Cd1G Cd 0.840604(17) -0.578588(18) 0.582353(9)
N5G N 0.8205(2) -0.0131(2) 1.16075(11)
loop_
_geom_bond_atom_site_label_1
_geom_bond_atom_site_label_2
_geom_bond_site_symmetry_1
_geom_bond_site_symmetry_2
Cd1 O1 1_555 1_555
O1 N2 1_555 1_555
O2 Cd1 1_555 1_555
O3 Cd1 1_555 1_555
O4 Cd1 1_555 1_555
N1 Cd1 1_555 1_555
N2 O3 1_555 1_555
N3 N6 1_555 1_555
N4 N7 1_555 1_555
N5 C4 1_555 1_555
N6 C13 1_555 1_555
N7 C13 1_555 1_555
N8 C17 1_555 1_555
N9 Cd1 1_555 1_555
N10 N14 1_555 1_555
N11 N12 1_555 1_555
N12 C1 1_555 1_555
N13 O2 1_555 1_555
N14 C1 1_555 1_555
C1 C15 1_555 1_555
C2 C9 1_555 1_555
C3 N3 1_555 1_555
C4 H1 1_555 1_555
C5 N1 1_555 1_555
H2 C5 1_555 1_555
C6 H3 1_555 1_555
C7 N1 1_555 1_555
H4 C7 1_555 1_555
C8 C7 1_555 1_555
H5 C8 1_555 1_555
C9 H6 1_555 1_555
C10 C5 1_555 1_555
H7 C10 1_555 1_555
C11 N9 1_555 1_555
H8 C11 1_555 1_555
C12 N9 1_555 1_555
H9 C12 1_555 1_555
C13 C2 1_555 1_555
C14 C3 1_555 1_555
C15 C6 1_555 1_555
C16 H10 1_555 1_555
C17 H11 1_555 1_555
C18 C12 1_555 1_555
H12 C18 1_555 1_555
C19 N10 1_555 1_555
C20 N8 1_555 1_555
H13 C20 1_555 1_555
C21 N5 1_555 1_555
H14 C21 1_555 1_555
C22 C2 1_555 1_555
H15 C22 1_555 1_555
C23 C17 1_555 1_555
H16 C23 1_555 1_555
C24 C16 1_555 1_555
Cd1G N5 1_555 1_555
N5G Cd1 1_555 1_555
O4 N13 1_555 1_555
N4 C3 1_555 1_555
N11 C19 1_555 1_555
C4 C22 1_555 1_555
C6 C11 1_555 1_555
C8 C14 1_555 1_555
C9 C21 1_555 1_555
C10 C14 1_555 1_555
C15 C18 1_555 1_555
C16 C20 1_555 1_555
C19 C24 1_555 1_555
C23 C24 1_555 1_555

#END
