
#######################################################################
#
#                 Cambridge Crystallographic Data Centre
#                                CCDC 
#
#######################################################################
#
# If this CIF has been generated from an entry in the Cambridge 
# Structural Database, then it will include bibliographic, chemical, 
# crystal, experimental, refinement or atomic coordinate data resulting 
# from the CCDC's data processing and validation procedures.
#
#######################################################################

data_ZUJGUI
_symmetry_cell_setting           triclinic
_symmetry_space_group_name_H-M   'P -1'
_symmetry_Int_Tables_number      2
_space_group_name_Hall           '-P 1'
loop_
_symmetry_equiv_pos_site_id
_symmetry_equiv_pos_as_xyz
1 x,y,z
2 -x,-y,-z
_cell_length_a                   7.03251(17)
_cell_length_b                   9.7693(3)
_cell_length_c                   14.1237(3)
_cell_angle_alpha                75.335(2)
_cell_angle_beta                 87.4269(19)
_cell_angle_gamma                76.516(2)
_cell_volume                     912.746
loop_
_atom_site_label
_atom_site_type_symbol
_atom_site_fract_x
_atom_site_fract_y
_atom_site_fract_z
Zn1 Zn 0.5000 0.5000 0.5000
S1 S 0.33777(5) 1.43736(3) 0.14112(2)
Na1 Na 0.13525(9) 0.58849(6) 0.90072(4)
O1 O 0.28028(15) 1.05487(10) 0.44241(7)
O2 O 0.50248(17) 0.69561(11) 0.41030(8)
O3 O 0.34075(17) 0.63080(11) 0.58506(8)
O4 O 0.15603(16) 0.71204(11) 0.73412(8)
H1 H 0.2068 0.6542 0.7001
O5 O -0.03086(17) 1.22176(12) 0.70545(8)
H2 H -0.0680 1.1908 0.7626
O6 O 0.19064(15) 1.47211(11) 0.06320(7)
O7 O 0.51294(15) 1.48970(11) 0.10594(8)
O8 O 0.25484(17) 1.48267(12) 0.22754(8)
O9 O 0.53797(17) 0.79722(11) 0.23649(8)
H3 H 0.5304 0.7571 0.2962
O10 O 0.52762(17) 1.23417(11) 0.00852(7)
H4 H 0.4932 1.3250 -0.0011
O11 O 0.23698(19) 0.49608(14) 0.42189(9)
H5 H 0.2712 0.4667 0.3683
H6 H 0.1599 0.5837 0.4058
O12 O 0.15337(16) 0.37058(12) 0.84947(8)
H7 H 0.2506 0.3189 0.8223
H8 H 0.0475 0.3926 0.8120
O13 O -0.02793(17) 0.79583(13) 0.97344(8)
H9 H -0.0962 0.7433 1.0179
H10 H -0.1159 0.8777 0.9441
C1 C 0.3724(2) 0.94958(14) 0.39628(10)
C2 C 0.4037(2) 0.80509(15) 0.44579(10)
C3 C 0.3232(2) 0.76573(15) 0.54198(10)
C4 C 0.1487(2) 0.85070(15) 0.68196(10)
C5 C 0.0640(2) 0.96397(16) 0.72253(10)
H11 H 0.0126 0.9454 0.7867
C6 C 0.0542(2) 1.10782(15) 0.66805(10)
C7 C 0.1285(2) 1.13920(15) 0.57402(10)
H12 H 0.1217 1.2366 0.5380
C8 C 0.2126(2) 1.02283(15) 0.53506(10)
C9 C 0.2273(2) 0.87775(15) 0.58657(10)
C10 C 0.42234(19) 1.01678(15) 0.29579(10)
C11 C 0.5023(2) 0.94191(15) 0.22376(10)
C12 C 0.5406(2) 1.02031(15) 0.13013(10)
H13 H 0.6001 0.9686 0.0838
C13 C 0.4944(2) 1.17086(15) 0.10294(10)
C14 C 0.4121(2) 1.24664(15) 0.17305(10)
C15 C 0.3801(2) 1.16948(15) 0.26637(10)
H14 H 0.3267 1.2223 0.3131
S1A S -0.33777(5) 0.56264(3) 0.85888(2)
Na1A Na -0.13525(9) 1.41151(6) 0.09928(4)
O1A O -0.28028(15) 0.94513(10) 0.55759(7)
O2A O -0.50248(17) 1.30439(11) 0.58970(8)
O3A O -0.34075(17) 1.36920(11) 0.41494(8)
O4A O -0.15603(16) 1.28796(11) 0.26588(8)
H1A H -0.2068 1.3458 0.2999
O5A O 0.03086(17) 0.77824(12) 0.29455(8)
H2A H 0.0680 0.8092 0.2374
O6A O -0.19064(15) 0.52789(11) 0.93680(7)
O7A O -0.51294(15) 0.51030(11) 0.89406(8)
O8A O -0.25484(17) 0.51733(12) 0.77246(8)
O9A O -0.53797(17) 1.20278(11) 0.76351(8)
H3A H -0.5304 1.2429 0.7038
O10A O -0.52762(17) 0.76583(11) 0.99148(7)
H4A H -0.4932 0.6750 1.0011
O12A O -0.15337(16) 1.62942(12) 0.15053(8)
H7A H -0.2506 1.6811 0.1777
H8A H -0.0475 1.6074 0.1880
O13A O 0.02793(17) 1.20417(13) 0.02656(8)
H9A H 0.0962 1.2567 -0.0179
H10A H 0.1159 1.1223 0.0559
C1A C -0.3724(2) 1.05042(14) 0.60372(10)
C2A C -0.4037(2) 1.19491(15) 0.55421(10)
C3A C -0.3232(2) 1.23427(15) 0.45802(10)
C4A C -0.1487(2) 1.14930(15) 0.31804(10)
C5A C -0.0640(2) 1.03603(16) 0.27747(10)
H11A H -0.0126 1.0546 0.2133
C6A C -0.0542(2) 0.89218(15) 0.33195(10)
C7A C -0.1285(2) 0.86080(15) 0.42598(10)
H12A H -0.1217 0.7634 0.4620
C8A C -0.2126(2) 0.97717(15) 0.46494(10)
C9A C -0.2273(2) 1.12225(15) 0.41343(10)
C10A C -0.42234(19) 0.98322(15) 0.70421(10)
C11A C -0.5023(2) 1.05809(15) 0.77624(10)
C12A C -0.5406(2) 0.97969(15) 0.86987(10)
H13A H -0.6001 1.0314 0.9162
C13A C -0.4944(2) 0.82914(15) 0.89706(10)
C14A C -0.4121(2) 0.75336(15) 0.82695(10)
C15A C -0.3801(2) 0.83052(15) 0.73363(10)
H14A H -0.3267 0.7777 0.6869
O11A O 0.76302(19) 0.50392(14) 0.57811(9)
H5A H 0.7288 0.5333 0.6317
H6A H 0.8401 0.4163 0.5942
Zn1_2 Zn -0.5000 1.5000 0.5000
Na1_2 Na -0.86475(9) 0.58849(6) 0.90072(4)
Na1_3 Na 0.13525(9) 1.58849(6) -0.09928(4)
Na1A_2 Na -0.13525(9) 0.41151(6) 1.09928(4)
Na1A_3 Na 0.86475(9) 1.41151(6) 0.09928(4)
O2A_2 O 0.49752(17) 0.30439(11) 0.58970(8)
O3A_2 O 0.65925(17) 0.36920(11) 0.41494(8)
O6_2 O 0.19064(15) 0.47211(11) 1.06320(7)
O6A_2 O -0.19064(15) 1.52789(11) -0.06320(7)
O7_2 O -0.48706(15) 1.48970(11) 0.10594(8)
O7A_2 O 0.48706(15) 0.51030(11) 0.89406(8)
O14 O -0.16255(17) 1.12192(14) 0.88700(9)
H15 H -0.1070 1.1454 0.9324
H16 H -0.2871 1.1618 0.8843
loop_
_geom_bond_atom_site_label_1
_geom_bond_atom_site_label_2
_geom_bond_site_symmetry_1
_geom_bond_site_symmetry_2
Zn1 O2 1_555 1_555
S1 O6 1_555 1_555
Na1 O4 1_555 1_555
O1 C1 1_555 1_555
O2 C2 1_555 1_555
O3 Zn1 1_555 1_555
O4 H1 1_555 1_555
O5 H2 1_555 1_555
O6 Na1A 1_555 1_555
O7 S1 1_555 1_555
O8 S1 1_555 1_555
O9 H3 1_555 1_555
O10 H4 1_555 1_555
O11 Zn1 1_555 1_555
H5 O11 1_555 1_555
H6 O11 1_555 1_555
O12 Na1 1_555 1_555
H7 O12 1_555 1_555
H8 O12 1_555 1_555
O13 Na1 1_555 1_555
H9 O13 1_555 1_555
H10 O13 1_555 1_555
C1 C2 1_555 1_555
C2 C3 1_555 1_555
C3 O3 1_555 1_555
C4 O4 1_555 1_555
C5 C4 1_555 1_555
H11 C5 1_555 1_555
C6 O5 1_555 1_555
C7 C6 1_555 1_555
H12 C7 1_555 1_555
C8 O1 1_555 1_555
C9 C3 1_555 1_555
C10 C1 1_555 1_555
C11 O9 1_555 1_555
C12 C11 1_555 1_555
H13 C12 1_555 1_555
C13 O10 1_555 1_555
C14 S1 1_555 1_555
C15 C10 1_555 1_555
H14 C15 1_555 1_555
O14 H15 1_555 1_555
H16 O14 1_555 1_555
S1A O6A 1_555 1_555
Na1A O4A 1_555 1_555
O1A C1A 1_555 1_555
O2A C2A 1_555 1_555
O3A C3A 1_555 1_555
O4A H1A 1_555 1_555
O5A H2A 1_555 1_555
O6A Na1 1_555 1_555
O7A S1A 1_555 1_555
O8A S1A 1_555 1_555
O9A H3A 1_555 1_555
O10A H4A 1_555 1_555
O12A Na1A 1_555 1_555
H7A O12A 1_555 1_555
H8A O12A 1_555 1_555
O13A Na1A 1_555 1_555
H9A O13A 1_555 1_555
H10A O13A 1_555 1_555
C1A C2A 1_555 1_555
C2A C3A 1_555 1_555
C3A C9A 1_555 1_555
C4A O4A 1_555 1_555
C5A C4A 1_555 1_555
H11A C5A 1_555 1_555
C6A O5A 1_555 1_555
C7A C6A 1_555 1_555
H12A C7A 1_555 1_555
C8A O1A 1_555 1_555
C9A C4A 1_555 1_555
C10A C1A 1_555 1_555
C11A O9A 1_555 1_555
C12A C11A 1_555 1_555
H13A C12A 1_555 1_555
C13A O10A 1_555 1_555
C14A S1A 1_555 1_555
C15A C10A 1_555 1_555
H14A C15A 1_555 1_555
O11A Zn1 1_555 1_555
H5A O11A 1_555 1_555
H6A O11A 1_555 1_555
Zn1_2 O2A 1_555 1_555
Na1_2 O7A 1_555 1_555
Na1_3 O6 1_555 1_555
Na1A_2 O6A 1_555 1_555
Na1A_3 O7 1_555 1_555
O2A_2 Zn1 1_555 1_555
O3A_2 Zn1 1_555 1_555
O6_2 Na1 1_555 1_555
O6A_2 Na1A 1_555 1_555
O7_2 Na1A 1_555 1_555
O7A_2 Na1 1_555 1_555
C4 C9 1_555 1_555
C5 C6 1_555 1_555
C7 C8 1_555 1_555
C8 C9 1_555 1_555
C10 C11 1_555 1_555
C12 C13 1_555 1_555
C13 C14 1_555 1_555
C14 C15 1_555 1_555
O3A Zn1_2 1_555 1_555
C5A C6A 1_555 1_555
C7A C8A 1_555 1_555
C8A C9A 1_555 1_555
C10A C11A 1_555 1_555
C12A C13A 1_555 1_555
C13A C14A 1_555 1_555
C14A C15A 1_555 1_555
Na1_3 O6A_2 1_555 1_555
Na1A_2 O6_2 1_555 1_555

#END
