
#######################################################################
#
#                 Cambridge Crystallographic Data Centre
#                                CCDC 
#
#######################################################################
#
# If this CIF has been generated from an entry in the Cambridge 
# Structural Database, then it will include bibliographic, chemical, 
# crystal, experimental, refinement or atomic coordinate data resulting 
# from the CCDC's data processing and validation procedures.
#
#######################################################################

data_ZULHOD
_symmetry_cell_setting           monoclinic
_symmetry_space_group_name_H-M   'P 21/a'
_symmetry_Int_Tables_number      14
_space_group_name_Hall           '-P 2yab'
loop_
_symmetry_equiv_pos_site_id
_symmetry_equiv_pos_as_xyz
1 x,y,z
2 1/2-x,1/2+y,-z
3 -x,-y,-z
4 1/2+x,1/2-y,z
_cell_length_a                   16.741(4)
_cell_length_b                   11.942(4)
_cell_length_c                   24.747(3)
_cell_angle_alpha                90
_cell_angle_beta                 103.99(1)
_cell_angle_gamma                90
_cell_volume                     4800.69
loop_
_atom_site_label
_atom_site_type_symbol
_atom_site_fract_x
_atom_site_fract_y
_atom_site_fract_z
Sn1 Sn -0.64705(6) 0.12694(8) 0.35203(4)
Cl1 Cl -0.5622(2) -0.0339(3) 0.3389(2)
Cl2 Cl -0.7232(3) 0.0109(4) 0.4024(2)
S1 S -0.5206(2) 0.1826(4) 0.2609(2)
S2 S -0.3040(3) 0.2198(4) 0.3939(2)
O1 O -0.5659(5) 0.2331(9) 0.3005(4)
O2 O -0.2330(5) 0.2192(8) 0.3675(5)
C1 C -0.7333(8) 0.120(1) 0.2720(6)
C2 C -0.7428(9) 0.213(1) 0.2366(6)
C3 C -0.799(1) 0.205(1) 0.1856(7)
C4 C -0.8455(9) 0.105(2) 0.1699(7)
C5 C -0.833(1) 0.017(2) 0.2063(8)
C6 C -0.777(1) 0.022(1) 0.2580(7)
C7 C -0.5630(8) 0.202(1) 0.4210(6)
C8 C -0.538(1) 0.139(2) 0.4698(7)
C9 C -0.483(1) 0.186(2) 0.5172(9)
C10 C -0.456(1) 0.291(2) 0.5140(9)
C11 C -0.479(1) 0.352(2) 0.4650(9)
C12 C -0.534(9) 0.308(1) 0.4181(7)
C25 C -0.576(2) 0.401(3) 0.130(1)
C26 C -0.607(2) 0.331(3) 0.172(1)
C27 C -0.528(1) 0.279(2) 0.2049(9)
C28 C -0.4140(9) 0.210(2) 0.2933(8)
C29 C -0.3885(9) 0.144(2) 0.3457(9)
C30 C -0.282(1) 0.109(2) 0.4486(9)
C31 C -0.204(1) 0.147(2) 0.4936(9)
C32 C -0.222(2) 0.261(3) 0.5260(1)
O2C O -0.7330(5) 0.2808(8) 0.3675(5)
Sn1C Sn -0.14705(6) 0.37306(8) 0.35203(4)
Sn2 Sn -0.36401(6) -0.13953(6) 0.15097(4)
Cl3 Cl -0.4522(3) 0.0236(3) 0.1574(2)
Cl4 Cl -0.2794(3) -0.0277(4) 0.1042(2)
S3 S -0.4938(2) -0.1927(4) 0.2384(2)
S4 S -0.7245(3) -0.1968(4) 0.1066(2)
O3 O -0.4518(5) -0.2439(8) 0.1968(4)
O4 O -0.7795(5) -0.2046(8) 0.1453(4)
C13 C -0.2865(8) -0.126(1) 0.2328(6)
C14 C -0.2718(9) -0.218(1) 0.2689(7)
C15 C -0.222(9) -0.205(1) 0.3235(7)
C16 C -0.190(1) -0.095(2) 0.3389(8)
C17 C -0.205(1) -0.006(2) 0.3028(9)
C18 C -0.253(1) -0.021(1) 0.2495(8)
C19 C -0.4468(9) -0.214(1) 0.0782(6)
C20 C -0.467(1) -0.322(1) 0.0765(7)
C21 C -0.525(1) -0.365(2) 0.0309(7)
C22 C -0.556(1) -0.296(2) -0.0129(8)
C23 C -0.535(1) -0.183(2) -0.0125(9)
C24 C -0.479(1) -0.140(2) 0.0347(7)
C33 C -0.457(1) -0.441(2) 0.352(1)
C34 C -0.444(1) -0.355(2) 0.316(1)
C35 C -0.521(1) -0.309(2) 0.2766(8)
C36 C -0.5973(8) -0.154(1) 0.1991(7)
C37 C -0.6217(9) -0.227(2) 0.1467(8)
C38 C -0.719(1) -0.045(2) 0.0947(8)
C39 C -0.706(3) -0.004(3) 0.041(1)
C40 C -0.712(2) 0.122(2) 0.036(1)
O4C O -0.2795(5) -0.2954(8) 0.1453(4)
Sn2C Sn -0.86401(6) -0.36047(6) 0.15097(4)
loop_
_geom_bond_atom_site_label_1
_geom_bond_atom_site_label_2
_geom_bond_site_symmetry_1
_geom_bond_site_symmetry_2
Sn1 Cl1 1_555 1_555
Sn2 Cl3 1_555 1_555
Cl2 Sn1 1_555 1_555
Cl4 Sn2 1_555 1_555
S1 O1 1_555 1_555
S2 O2 1_555 1_555
S3 O3 1_555 1_555
S4 O4 1_555 1_555
O1 Sn1 1_555 1_555
O2 Sn1C 1_555 1_555
O3 Sn2 1_555 1_555
O4 Sn2C 1_555 1_555
C1 Sn1 1_555 1_555
C2 C1 1_555 1_555
C3 C2 1_555 1_555
C4 C3 1_555 1_555
C5 C4 1_555 1_555
C6 C1 1_555 1_555
C7 Sn1 1_555 1_555
C8 C7 1_555 1_555
C9 C8 1_555 1_555
C10 C9 1_555 1_555
C11 C10 1_555 1_555
C12 C7 1_555 1_555
C13 Sn2 1_555 1_555
C14 C13 1_555 1_555
C15 C14 1_555 1_555
C16 C15 1_555 1_555
C17 C16 1_555 1_555
C18 C13 1_555 1_555
C19 Sn2 1_555 1_555
C20 C19 1_555 1_555
C21 C20 1_555 1_555
C22 C21 1_555 1_555
C23 C22 1_555 1_555
C24 C19 1_555 1_555
C25 C26 1_555 1_555
C26 C27 1_555 1_555
C27 S1 1_555 1_555
C28 S1 1_555 1_555
C29 S2 1_555 1_555
C30 S2 1_555 1_555
C31 C30 1_555 1_555
C32 C31 1_555 1_555
C33 C34 1_555 1_555
C34 C35 1_555 1_555
C35 S3 1_555 1_555
C36 S3 1_555 1_555
C37 S4 1_555 1_555
C38 S4 1_555 1_555
C39 C38 1_555 1_555
C40 C39 1_555 1_555
O2C Sn1 1_555 1_555
O4C Sn2 1_555 1_555
C5 C6 1_555 1_555
C11 C12 1_555 1_555
C17 C18 1_555 1_555
C23 C24 1_555 1_555
C28 C29 1_555 1_555
C36 C37 1_555 1_555

#END
