
#######################################################################
#
#                 Cambridge Crystallographic Data Centre
#                                CCDC 
#
#######################################################################
#
# If this CIF has been generated from an entry in the Cambridge 
# Structural Database, then it will include bibliographic, chemical, 
# crystal, experimental, refinement or atomic coordinate data resulting 
# from the CCDC's data processing and validation procedures.
#
#######################################################################

data_ZULMOK
_symmetry_cell_setting           hexagonal
_symmetry_space_group_name_H-M   'P 63'
_symmetry_Int_Tables_number      173
_space_group_name_Hall           'P 6c'
loop_
_symmetry_equiv_pos_site_id
_symmetry_equiv_pos_as_xyz
1 x,y,z
2 -y,x-y,z
3 -x+y,-x,z
4 -x,-y,1/2+z
5 y,-x+y,1/2+z
6 x-y,x,1/2+z
_cell_length_a                   18.3143(10)
_cell_length_b                   18.3143(10)
_cell_length_c                   6.1688(5)
_cell_angle_alpha                90
_cell_angle_beta                 90
_cell_angle_gamma                120
_cell_volume                     1791.89
loop_
_atom_site_label
_atom_site_type_symbol
_atom_site_fract_x
_atom_site_fract_y
_atom_site_fract_z
Co1 Co 0.07214(4) 0.83065(4) 0.69758(15)
P1 P 0.02202(7) 0.77939(7) 0.2186(3)
O1 O 0.0425(2) 0.8491(2) 0.3861(7)
O2 O 0.0830(2) 0.8119(3) 0.0257(8)
O3 O -0.0697(2) 0.7345(2) 0.1504(6)
O4 O -0.0541(2) 0.7211(2) 0.7198(8)
H1 H -0.0891 0.7338 0.6247
H2 H -0.0705 0.7218 0.8588
O5 O 0.0208(3) 0.9093(3) 0.7911(9)
H3 H -0.0264 0.8773 0.8516
H4 H 0.0512 0.9565 0.8837
N1 N 0.1071(3) 0.7448(3) 0.5268(8)
H5 H 0.1508 0.7726 0.4710
C1 C 0.0419(4) 0.7026(4) 0.3585(10)
H6 H -0.0099 0.6595 0.4248
H7 H 0.0603 0.6755 0.2545
C2 C 0.1237(4) 0.6866(3) 0.6591(11)
H8 H 0.0766 0.6582 0.7610
C3 C 0.2034(5) 0.7380(5) 0.7945(13)
H9 H 0.2512 0.7666 0.7000
H10 H 0.2115 0.7010 0.8890
H11 H 0.1976 0.7787 0.8794
C4 C 0.1280(4) 0.6184(4) 0.5306(11)
C5 C 0.1798(5) 0.6387(4) 0.3473(15)
H12 H 0.2127 0.6950 0.3071
C6 C 0.1832(5) 0.5773(4) 0.2249(17)
H13 H 0.2164 0.5922 0.1008
C7 C 0.1374(5) 0.4941(5) 0.2868(16)
H14 H 0.1404 0.4528 0.2064
C8 C 0.0871(4) 0.4724(4) 0.4677(14)
H15 H 0.0559 0.4161 0.5095
C9 C 0.0826(4) 0.5343(4) 0.5888(13)
H16 H 0.0484 0.5188 0.7113
Co1_2 Co 0.07214(4) 0.83065(4) -0.30242(15)
Co1D Co -0.16935(4) 0.75851(6) 0.19758(15)
O2_2 O 0.0830(2) 0.8119(3) 1.0257(8)
O3E O 0.1958(3) 0.9303(2) 0.6504(6)
loop_
_geom_bond_atom_site_label_1
_geom_bond_atom_site_label_2
_geom_bond_site_symmetry_1
_geom_bond_site_symmetry_2
Co1 O1 1_555 1_555
P1 O1 1_555 1_555
O2 P1 1_555 1_555
O3 P1 1_555 1_555
O4 Co1 1_555 1_555
H1 O4 1_555 1_555
H2 O4 1_555 1_555
O5 Co1 1_555 1_555
H3 O5 1_555 1_555
H4 O5 1_555 1_555
N1 Co1 1_555 1_555
H5 N1 1_555 1_555
C1 P1 1_555 1_555
H6 C1 1_555 1_555
H7 C1 1_555 1_555
C2 N1 1_555 1_555
H8 C2 1_555 1_555
C3 C2 1_555 1_555
H9 C3 1_555 1_555
H10 C3 1_555 1_555
H11 C3 1_555 1_555
C4 C2 1_555 1_555
C5 C4 1_555 1_555
H12 C5 1_555 1_555
C6 C5 1_555 1_555
H13 C6 1_555 1_555
C7 C6 1_555 1_555
H14 C7 1_555 1_555
C8 C7 1_555 1_555
H15 C8 1_555 1_555
C9 C4 1_555 1_555
H16 C9 1_555 1_555
Co1_2 O2 1_555 1_555
Co1D O3 1_555 1_555
O2_2 Co1 1_555 1_555
O3E Co1 1_555 1_555
N1 C1 1_555 1_555
C8 C9 1_555 1_555

#END
