
#######################################################################
#
#                 Cambridge Crystallographic Data Centre
#                                CCDC 
#
#######################################################################
#
# If this CIF has been generated from an entry in the Cambridge 
# Structural Database, then it will include bibliographic, chemical, 
# crystal, experimental, refinement or atomic coordinate data resulting 
# from the CCDC's data processing and validation procedures.
#
#######################################################################

data_ZULNEB
_symmetry_cell_setting           orthorhombic
_symmetry_space_group_name_H-M   'I 2 2 2'
_symmetry_Int_Tables_number      23
_space_group_name_Hall           'I 2 2'
loop_
_symmetry_equiv_pos_site_id
_symmetry_equiv_pos_as_xyz
1 x,y,z
2 -x,-y,z
3 x,-y,-z
4 -x,y,-z
5 1/2+x,1/2+y,1/2+z
6 1/2-x,1/2-y,1/2+z
7 1/2+x,1/2-y,1/2-z
8 1/2-x,1/2+y,1/2-z
_cell_length_a                   3.8900(3)
_cell_length_b                   10.7997(9)
_cell_length_c                   11.3951(8)
_cell_angle_alpha                90
_cell_angle_beta                 90
_cell_angle_gamma                90
_cell_volume                     478.718
loop_
_atom_site_label
_atom_site_type_symbol
_atom_site_fract_x
_atom_site_fract_y
_atom_site_fract_z
Fe1 Fe 0.0000 0.0000 0.0000
F1 F 0.0000 0.1722(2) 0.0000
F2 F -0.5000 0.0000 0.0000
N1 N 0.0000 0.0000 -0.1896(3)
C1 C 0.0000 0.0000 -0.4347(3)
C2 C 0.1052(9) -0.0998(3) -0.2507(3)
H1 H 0.1801 -0.1690 -0.2093
C3 C 0.1068(9) -0.1043(3) -0.3718(3)
H2 H 0.1779 -0.1754 -0.4109
C2A C -0.1052(9) 0.0998(3) -0.2507(3)
H1A H -0.1801 0.1690 -0.2093
C3A C -0.1068(9) 0.1043(3) -0.3718(3)
H2A H -0.1779 0.1754 -0.4109
N1B N 0.0000 0.0000 -0.8104(3)
C1B C 0.0000 0.0000 -0.5653(3)
C2B C 0.1052(9) 0.0998(3) -0.7493(3)
H1B H 0.1801 0.1690 -0.7907
C3B C 0.1068(9) 0.1043(3) -0.6282(3)
H2B H 0.1779 0.1754 -0.5891
C2C C -0.1052(9) -0.0998(3) -0.7493(3)
H1C H -0.1801 -0.1690 -0.7907
C3C C -0.1068(9) -0.1043(3) -0.6282(3)
H2C H -0.1779 -0.1754 -0.5891
F1A F 0.0000 -0.1722(2) 0.0000
Fe1_2 Fe -1.0000 0.0000 0.0000
Fe1_3 Fe 0.0000 0.0000 -1.0000
F2_2 F 0.5000 0.0000 0.0000
N1B_2 N 0.0000 0.0000 0.1896(3)
loop_
_geom_bond_atom_site_label_1
_geom_bond_atom_site_label_2
_geom_bond_site_symmetry_1
_geom_bond_site_symmetry_2
Fe1 F1 1_555 1_555
F2 Fe1 1_555 1_555
N1 Fe1 1_555 1_555
C1 C3 1_555 1_555
C2 N1 1_555 1_555
H1 C2 1_555 1_555
C3 C2 1_555 1_555
H2 C3 1_555 1_555
C2A N1 1_555 1_555
H1A C2A 1_555 1_555
C3A C1 1_555 1_555
H2A C3A 1_555 1_555
N1B C2B 1_555 1_555
C1B C1 1_555 1_555
C2B H1B 1_555 1_555
C3B C1B 1_555 1_555
H2B C3B 1_555 1_555
C2C N1B 1_555 1_555
H1C C2C 1_555 1_555
C3C C1B 1_555 1_555
H2C C3C 1_555 1_555
F1A Fe1 1_555 1_555
Fe1_2 F2 1_555 1_555
Fe1_3 N1B 1_555 1_555
F2_2 Fe1 1_555 1_555
N1B_2 Fe1 1_555 1_555
C2A C3A 1_555 1_555
C2B C3B 1_555 1_555
C2C C3C 1_555 1_555

#END
