
#######################################################################
#
#                 Cambridge Crystallographic Data Centre
#                                CCDC 
#
#######################################################################
#
# If this CIF has been generated from an entry in the Cambridge 
# Structural Database, then it will include bibliographic, chemical, 
# crystal, experimental, refinement or atomic coordinate data resulting 
# from the CCDC's data processing and validation procedures.
#
#######################################################################

data_ZUMFOE
_symmetry_cell_setting           monoclinic
_symmetry_space_group_name_H-M   'P 21/n'
_symmetry_Int_Tables_number      14
_space_group_name_Hall           '-P 2yn'
loop_
_symmetry_equiv_pos_site_id
_symmetry_equiv_pos_as_xyz
1 x,y,z
2 1/2-x,1/2+y,1/2-z
3 -x,-y,-z
4 1/2+x,1/2-y,1/2+z
_cell_length_a                   10.5781(4)
_cell_length_b                   7.7753(3)
_cell_length_c                   23.7726(12)
_cell_angle_alpha                90
_cell_angle_beta                 98.381(2)
_cell_angle_gamma                90
_cell_volume                     1934.37
loop_
_atom_site_label
_atom_site_type_symbol
_atom_site_fract_x
_atom_site_fract_y
_atom_site_fract_z
C1 C 0.1865(5) 0.0800(6) 0.1292(2)
H1 H 0.1076 0.0658 0.1415
C2 C 0.1920(6) 0.0778(7) 0.0731(3)
H2 H 0.1184 0.0612 0.0471
C3 C 0.3063(7) 0.1001(8) 0.0549(3)
H3 H 0.3122 0.0970 0.0163
C4 C 0.4140(6) 0.1274(7) 0.0942(3)
H4 H 0.4927 0.1458 0.0822
C5 C 0.4040(4) 0.1272(5) 0.1509(2)
C6 C 0.5167(4) 0.1469(6) 0.1964(2)
H5 H 0.5642 0.0399 0.2011
H6 H 0.5730 0.2359 0.1859
C7 C 0.5560(4) 0.1528(6) 0.3025(2)
H7 H 0.6212 0.2409 0.3102
H8 H 0.5981 0.0435 0.2986
C8 C 0.4792(5) 0.1437(6) 0.3506(2)
C9 C 0.5303(6) 0.1735(7) 0.4062(3)
H9 H 0.6155 0.2052 0.4158
C10 C 0.4523(7) 0.1552(9) 0.4478(3)
H10 H 0.4843 0.1765 0.4857
C11 C 0.3275(7) 0.1054(8) 0.4328(3)
H11 H 0.2746 0.0883 0.4603
C12 C 0.2830(6) 0.0817(6) 0.3768(2)
H12 H 0.1977 0.0515 0.3666
C13 C 0.0566(4) 0.1692(5) 0.2577(2)
C14 C -0.0810(5) 0.1475(7) 0.2641(3)
H13 H -0.0873 0.0891 0.2991
H14 H -0.1233 0.0812 0.2328
H15 H -0.1207 0.2585 0.2644
N1 N 0.3556(4) 0.0998(4) 0.33559(18)
N2 N 0.2906(3) 0.1018(4) 0.16838(17)
N3 N 0.4712(3) 0.1932(4) 0.24981(17)
H16 H 0.449(4) 0.305(3) 0.252(2)
O1 O 0.1224(3) 0.0314(3) 0.25544(13)
O2 O 0.1044(3) 0.3123(3) 0.25534(16)
Cu1 Cu 0.30084(4) 0.08807(6) 0.25227(2)
O2A O 0.3956(3) -0.1877(3) 0.24466(16)
Cu1A Cu 0.19916(4) 0.58807(6) 0.24773(2)
C15 C 0.5189(15) 0.5278(17) 0.0907(8)
O3 O 0.565(3) 0.659(3) 0.0619(11)
O9 O 0.8721(16) 0.2778(15) 0.1318(5)
O10 O 0.7072(11) 0.2640(17) 0.0598(5)
O11 O 0.8774(10) 0.0956(18) 0.0595(5)
O12 O 0.7430(11) 0.0467(13) 0.1218(6)
Cl1 Cl 0.79804(15) 0.1780(3) 0.09522(8)
C16? C 0.545(4) 0.670(6) 0.070(3)
O4? O 0.615(7) 0.561(5) 0.1068(17)
O5? O 0.7558(11) 0.3160(12) 0.1330(4)
O6? O 0.7052(12) 0.183(2) 0.0459(5)
O7? O 0.9183(10) 0.233(2) 0.0839(6)
O8? O 0.7981(17) 0.0236(14) 0.1245(6)
loop_
_geom_bond_atom_site_label_1
_geom_bond_atom_site_label_2
_geom_bond_site_symmetry_1
_geom_bond_site_symmetry_2
C1 H1 1_555 1_555
C2 C1 1_555 1_555
H2 C2 1_555 1_555
C3 C2 1_555 1_555
H3 C3 1_555 1_555
C4 C3 1_555 1_555
H4 C4 1_555 1_555
C5 C4 1_555 1_555
C6 C5 1_555 1_555
H5 C6 1_555 1_555
H6 C6 1_555 1_555
C7 H7 1_555 1_555
H8 C7 1_555 1_555
C8 C7 1_555 1_555
C9 C8 1_555 1_555
H9 C9 1_555 1_555
C10 C9 1_555 1_555
H10 C10 1_555 1_555
C11 C10 1_555 1_555
H11 C11 1_555 1_555
C12 C11 1_555 1_555
H12 C12 1_555 1_555
C13 C14 1_555 1_555
C14 H13 1_555 1_555
H14 C14 1_555 1_555
H15 C14 1_555 1_555
N1 C8 1_555 1_555
N2 C1 1_555 1_555
N3 C6 1_555 1_555
H16 N3 1_555 1_555
O1 C13 1_555 1_555
O2 C13 1_555 1_555
Cu1 N1 1_555 1_555
C15 O3 1_555 1_555
O9 Cl1 1_555 1_555
O10 Cl1 1_555 1_555
O11 Cl1 1_555 1_555
O12 Cl1 1_555 1_555
O2A Cu1 1_555 1_555
Cu1A O2 1_555 1_555
C5 N2 1_555 1_555
C7 N3 1_555 1_555
C12 N1 1_555 1_555
N2 Cu1 1_555 1_555
N3 Cu1 1_555 1_555
O1 Cu1 1_555 1_555
O2 Cu1 1_555 1_555

#END
