
#######################################################################
#
#                 Cambridge Crystallographic Data Centre
#                                CCDC 
#
#######################################################################
#
# If this CIF has been generated from an entry in the Cambridge 
# Structural Database, then it will include bibliographic, chemical, 
# crystal, experimental, refinement or atomic coordinate data resulting 
# from the CCDC's data processing and validation procedures.
#
#######################################################################

data_ZUMJOI
_symmetry_cell_setting           triclinic
_symmetry_space_group_name_H-M   'P -1'
_symmetry_Int_Tables_number      2
_space_group_name_Hall           '-P 1'
loop_
_symmetry_equiv_pos_site_id
_symmetry_equiv_pos_as_xyz
1 x,y,z
2 -x,-y,-z
_cell_length_a                   8.7641(18)
_cell_length_b                   13.113(3)
_cell_length_c                   13.181(3)
_cell_angle_alpha                75.24(3)
_cell_angle_beta                 81.55(3)
_cell_angle_gamma                82.95(3)
_cell_volume                     1443.15
loop_
_atom_site_label
_atom_site_type_symbol
_atom_site_fract_x
_atom_site_fract_y
_atom_site_fract_z
C1 C 0.4674(3) 0.9446(2) 0.7019(2)
C2 C 0.5571(3) 0.8851(3) 0.7905(2)
C3 C 0.5704(3) 0.7749(3) 0.8165(2)
C4 C 0.6441(4) 0.7200(3) 0.9029(2)
C5 C 0.7087(4) 0.7725(3) 0.9624(3)
H1 H 0.7591 0.7351 1.0198
C6 C 0.6963(4) 0.8823(3) 0.9342(3)
C7 C 0.6194(4) 0.9393(3) 0.8505(3)
H2 H 0.6093 1.0129 0.8345
C8 C -0.0263(3) 0.8859(2) 0.6405(2)
C9 C 0.0147(3) 0.7904(3) 0.7275(2)
C10 C -0.0112(3) 0.6867(3) 0.7293(3)
C11 C 0.0321(4) 0.6039(3) 0.8131(3)
C12 C 0.0992(4) 0.6232(3) 0.8949(3)
H3 H 0.1276 0.5679 0.9506
C13 C 0.1224(4) 0.7250(3) 0.8916(3)
C14 C 0.0828(3) 0.8094(3) 0.8089(2)
H4 H 0.1017 0.8779 0.8081
C15 C 0.5613(4) 1.1912(2) 0.5268(2)
C16 C 0.5912(3) 1.2891(2) 0.5600(2)
C17 C 0.5305(3) 1.3059(3) 0.6587(3)
C18 C 0.5584(4) 1.3972(3) 0.6861(3)
C19 C 0.6432(4) 1.4732(3) 0.6153(3)
H5 H 0.6603 1.5347 0.6332
C20 C 0.7020(3) 1.4553(2) 0.5173(3)
C21 C 0.6790(3) 1.3637(3) 0.4897(3)
H6 H 0.7224 1.3523 0.4243
Cl1 Cl 0.48828(10) 0.70859(7) 0.74353(7)
Cl2 Cl 0.65338(10) 0.58294(7) 0.93890(7)
Cl3 Cl 0.77391(13) 0.94979(9) 1.00928(8)
Cl4 Cl 0.20907(12) 0.75000(10) 0.99249(8)
Cl5 Cl 0.00343(12) 0.47396(7) 0.81884(8)
Cl6 Cl -0.09051(10) 0.65758(7) 0.62904(7)
Cl7 Cl 0.42384(10) 1.21299(7) 0.75032(7)
Cl8 Cl 0.48564(13) 1.41857(9) 0.80878(8)
Cl9 Cl 0.80732(10) 1.55107(7) 0.42824(7)
Ho1 Ho 0.28058(2) 1.03309(2) 0.53732(2)
O1 O 0.3299(2) 0.97944(18) 0.72225(17)
O2 O 0.5299(2) 0.95666(17) 0.60659(16)
O3 O 0.0612(2) 0.95912(17) 0.61641(16)
O4 O -0.1493(2) 0.88807(18) 0.60132(17)
O5 O 0.4215(2) 1.17315(17) 0.53579(17)
O6 O 0.6773(2) 1.13768(17) 0.49236(18)
C22 C -0.0621(6) 1.1815(6) 0.7551(4)
H7 H -0.0195 1.2372 0.7740
H8 H -0.1721 1.1858 0.7750
H9 H -0.0165 1.1142 0.7914
C23 C -0.0302(4) 1.1923(3) 0.6454(3)
H10 H -0.0931 1.1468 0.6249
H11 H -0.0603 1.2648 0.6098
O7 O 0.1298(2) 1.16650(18) 0.61011(18)
H12 H 0.1831 1.2086 0.6217
Ho1A Ho -0.28058(2) 0.96691(2) 0.46268(2)
Ho1A_2 Ho 0.71942(2) 0.96691(2) 0.46268(2)
O2A O 0.4701(2) 1.04334(17) 0.39341(16)
O4A O 0.1493(2) 1.11193(18) 0.39868(17)
O6A O 0.3227(2) 0.86232(17) 0.50764(18)
loop_
_geom_bond_atom_site_label_1
_geom_bond_atom_site_label_2
_geom_bond_site_symmetry_1
_geom_bond_site_symmetry_2
C1 C2 1_555 1_555
C2 C3 1_555 1_555
C3 C4 1_555 1_555
C4 C5 1_555 1_555
C5 H1 1_555 1_555
C6 C5 1_555 1_555
C7 C2 1_555 1_555
H2 C7 1_555 1_555
C8 C9 1_555 1_555
C9 C10 1_555 1_555
C10 C11 1_555 1_555
C11 C12 1_555 1_555
C12 H3 1_555 1_555
C13 C12 1_555 1_555
C14 C9 1_555 1_555
H4 C14 1_555 1_555
C15 C16 1_555 1_555
C16 C17 1_555 1_555
C17 C18 1_555 1_555
C18 C19 1_555 1_555
C19 H5 1_555 1_555
C20 C19 1_555 1_555
C21 C16 1_555 1_555
H6 C21 1_555 1_555
Cl1 C3 1_555 1_555
Cl2 C4 1_555 1_555
Cl3 C6 1_555 1_555
Cl4 C13 1_555 1_555
Cl5 C11 1_555 1_555
Cl6 C10 1_555 1_555
Cl7 C17 1_555 1_555
Cl8 C18 1_555 1_555
Cl9 C20 1_555 1_555
Ho1 O1 1_555 1_555
O1 C1 1_555 1_555
O2 C1 1_555 1_555
O3 C8 1_555 1_555
O4 C8 1_555 1_555
O5 C15 1_555 1_555
O6 C15 1_555 1_555
C22 H7 1_555 1_555
H8 C22 1_555 1_555
H9 C22 1_555 1_555
C23 C22 1_555 1_555
H10 C23 1_555 1_555
H11 C23 1_555 1_555
O7 Ho1 1_555 1_555
H12 O7 1_555 1_555
Ho1A O4 1_555 1_555
Ho1A_2 O2 1_555 1_555
O2A Ho1 1_555 1_555
O4A Ho1 1_555 1_555
O6A Ho1 1_555 1_555
C6 C7 1_555 1_555
C13 C14 1_555 1_555
C20 C21 1_555 1_555
Ho1 O2 1_555 1_555
Ho1 O3 1_555 1_555
Ho1 O5 1_555 1_555
O6 Ho1A_2 1_555 1_555
C23 O7 1_555 1_555
Ho1A_2 O2A 1_555 1_555

#END
