
#######################################################################
#
#                 Cambridge Crystallographic Data Centre
#                                CCDC 
#
#######################################################################
#
# If this CIF has been generated from an entry in the Cambridge 
# Structural Database, then it will include bibliographic, chemical, 
# crystal, experimental, refinement or atomic coordinate data resulting 
# from the CCDC's data processing and validation procedures.
#
#######################################################################

data_ZUMJUO
_symmetry_cell_setting           triclinic
_symmetry_space_group_name_H-M   'P -1'
_symmetry_Int_Tables_number      2
_space_group_name_Hall           '-P 1'
loop_
_symmetry_equiv_pos_site_id
_symmetry_equiv_pos_as_xyz
1 x,y,z
2 -x,-y,-z
_cell_length_a                   8.7390(17)
_cell_length_b                   13.092(3)
_cell_length_c                   13.161(3)
_cell_angle_alpha                75.32(3)
_cell_angle_beta                 81.66(3)
_cell_angle_gamma                83.13(3)
_cell_volume                     1435.79
loop_
_atom_site_label
_atom_site_type_symbol
_atom_site_fract_x
_atom_site_fract_y
_atom_site_fract_z
C1 C 1.0601(4) 0.1899(3) 0.5274(3)
C2 C 1.0916(4) 0.2884(3) 0.5603(3)
C3 C 1.1795(4) 0.3627(3) 0.4897(3)
H1 H 1.2230 0.3509 0.4244
C4 C 1.2022(4) 0.4549(3) 0.5168(3)
C5 C 1.1431(4) 0.4718(3) 0.6157(3)
H2 H 1.1606 0.5333 0.6338
C6 C 1.0586(5) 0.3967(3) 0.6862(3)
C7 C 1.0298(4) 0.3048(3) 0.6593(3)
C8 C 0.4736(4) -0.1137(3) 0.6399(3)
C9 C 0.5147(4) -0.2092(3) 0.7271(3)
C10 C 0.5836(4) -0.1904(3) 0.8085(3)
H3 H 0.6036 -0.1219 0.8072
C11 C 0.6223(5) -0.2734(4) 0.8912(3)
C12 C 0.5971(5) -0.3768(3) 0.8944(3)
H4 H 0.6238 -0.4321 0.9507
C13 C 0.5317(5) -0.3959(3) 0.8126(3)
C14 C 0.4879(4) -0.3132(3) 0.7283(3)
C15 C 0.9668(4) -0.0554(3) 0.7012(3)
C16 C 1.0577(4) -0.1154(3) 0.7908(3)
C17 C 1.1206(5) -0.0606(3) 0.8495(3)
H5 H 1.1121 0.0131 0.8325
C18 C 1.1963(5) -0.1179(3) 0.9342(3)
C19 C 1.2089(4) -0.2275(3) 0.9631(3)
H6 H 1.2587 -0.2644 1.0211
C20 C 1.1450(4) -0.2804(3) 0.9030(3)
C21 C 1.0706(4) -0.2252(3) 0.8162(3)
C22 C 0.4709(5) 0.1905(4) 0.6458(4)
H7 H 0.4390 0.2616 0.6074
H8 H 0.4093 0.1420 0.6280
C23 C 0.4402(7) 0.1843(8) 0.7540(5)
H9 H 0.4381 0.1113 0.7919
H10 H 0.3414 0.2218 0.7686
H11 H 0.5199 0.2154 0.7760
Cl1 Cl 0.92421(13) 0.21242(8) 0.75079(8)
Cl2 Cl 0.98588(15) 0.41809(10) 0.80883(9)
Cl3 Cl 1.30681(12) 0.55053(8) 0.42823(8)
Cl4 Cl 1.27473(16) -0.05028(10) 1.00918(10)
Cl5 Cl 1.15325(12) -0.41712(8) 0.93910(8)
Cl6 Cl 0.98820(12) -0.29175(7) 0.74335(8)
Cl7 Cl 0.70905(14) -0.24988(12) 0.99251(9)
Cl8 Cl 0.50223(15) -0.52574(8) 0.81830(9)
Cl9 Cl 0.40898(12) -0.34193(8) 0.62815(8)
Er1 Er 0.78095(2) 0.03279(2) 0.53724(2)
O1 O 1.1776(3) 0.1369(2) 0.4932(2)
O2 O 0.9216(3) 0.17247(19) 0.5360(2)
O3 O 1.0306(3) -0.0435(2) 0.60553(19)
O4 O 0.8299(3) -0.0203(2) 0.7213(2)
O5 O 0.3496(3) -0.1114(2) 0.6014(2)
O6 O 0.5616(3) -0.0412(2) 0.6157(2)
O7 O 0.6310(3) 0.1656(2) 0.6120(2)
H12 H 0.6385 0.1448 0.5575
Er1A Er 0.21905(2) -0.03279(2) 0.46276(2)
Er1A_2 Er 1.21905(2) -0.03279(2) 0.46276(2)
O1A O 0.8224(3) -0.1369(2) 0.5068(2)
O3A O 0.9694(3) 0.0435(2) 0.39447(19)
O5A O 0.6504(3) 0.1114(2) 0.3986(2)
loop_
_geom_bond_atom_site_label_1
_geom_bond_atom_site_label_2
_geom_bond_site_symmetry_1
_geom_bond_site_symmetry_2
C1 C2 1_555 1_555
C2 C3 1_555 1_555
C3 H1 1_555 1_555
C4 C3 1_555 1_555
C5 C4 1_555 1_555
H2 C5 1_555 1_555
C6 C5 1_555 1_555
C7 C2 1_555 1_555
C8 C9 1_555 1_555
C9 C10 1_555 1_555
C10 H3 1_555 1_555
C11 C10 1_555 1_555
C12 C11 1_555 1_555
H4 C12 1_555 1_555
C13 C12 1_555 1_555
C14 C9 1_555 1_555
C15 C16 1_555 1_555
C16 C17 1_555 1_555
C17 H5 1_555 1_555
C18 C17 1_555 1_555
C19 C18 1_555 1_555
H6 C19 1_555 1_555
C20 C19 1_555 1_555
C21 C16 1_555 1_555
C22 H7 1_555 1_555
H8 C22 1_555 1_555
C23 C22 1_555 1_555
H9 C23 1_555 1_555
H10 C23 1_555 1_555
H11 C23 1_555 1_555
Cl1 C7 1_555 1_555
Cl2 C6 1_555 1_555
Cl3 C4 1_555 1_555
Cl4 C18 1_555 1_555
Cl5 C20 1_555 1_555
Cl6 C21 1_555 1_555
Cl7 C11 1_555 1_555
Cl8 C13 1_555 1_555
Cl9 C14 1_555 1_555
Er1 O2 1_555 1_555
O1 C1 1_555 1_555
O2 C1 1_555 1_555
O3 C15 1_555 1_555
O4 C15 1_555 1_555
O5 C8 1_555 1_555
O6 C8 1_555 1_555
O7 C22 1_555 1_555
H12 O7 1_555 1_555
Er1A O5 1_555 1_555
Er1A_2 O1 1_555 1_555
O1A Er1 1_555 1_555
O3A Er1 1_555 1_555
O5A Er1 1_555 1_555
C6 C7 1_555 1_555
C13 C14 1_555 1_555
C20 C21 1_555 1_555
Er1 O3 1_555 1_555
Er1 O4 1_555 1_555
Er1 O6 1_555 1_555
Er1 O7 1_555 1_555
O3 Er1A_2 1_555 1_555
Er1A_2 O3A 1_555 1_555

#END
