
#######################################################################
#
#                 Cambridge Crystallographic Data Centre
#                                CCDC 
#
#######################################################################
#
# If this CIF has been generated from an entry in the Cambridge 
# Structural Database, then it will include bibliographic, chemical, 
# crystal, experimental, refinement or atomic coordinate data resulting 
# from the CCDC's data processing and validation procedures.
#
#######################################################################

data_ZUMJIC
_symmetry_cell_setting           triclinic
_symmetry_space_group_name_H-M   'P -1'
_symmetry_Int_Tables_number      2
_space_group_name_Hall           '-P 1'
loop_
_symmetry_equiv_pos_site_id
_symmetry_equiv_pos_as_xyz
1 x,y,z
2 -x,-y,-z
_cell_length_a                   8.8542(18)
_cell_length_b                   13.202(3)
_cell_length_c                   13.234(3)
_cell_angle_alpha                75.43(3)
_cell_angle_beta                 83.51(3)
_cell_angle_gamma                82.44(3)
_cell_volume                     1479.04
loop_
_atom_site_label
_atom_site_type_symbol
_atom_site_fract_x
_atom_site_fract_y
_atom_site_fract_z
C1 C 0.9705(4) 0.7021(3) 0.4415(3)
C2 C 1.0599(5) 0.7908(3) 0.3832(3)
C3 C 1.1236(6) 0.8499(4) 0.4365(3)
H1 H 1.1159 0.8329 0.5093
C4 C 1.1989(6) 0.9347(4) 0.3806(4)
C5 C 1.2097(6) 0.9627(4) 0.2727(4)
H2 H 1.2592 1.0206 0.2360
C6 C 1.1461(5) 0.9038(4) 0.2209(3)
C7 C 1.0723(5) 0.8168(3) 0.2743(3)
C8 C 1.0596(5) 0.5293(3) 0.6898(3)
C9 C 1.0900(4) 0.5627(3) 0.7870(3)
C10 C 1.0322(5) 0.6603(4) 0.8040(3)
C11 C 1.0601(6) 0.6871(4) 0.8948(3)
C12 C 1.1421(6) 0.6159(4) 0.9700(3)
H3 H 1.1586 0.6331 1.0316
C13 C 1.1995(5) 0.5180(4) 0.9519(3)
C14 C 1.1764(5) 0.4911(4) 0.8606(3)
H4 H 1.2179 0.4263 0.8486
C15 C 0.5232(4) 0.3601(3) 0.6172(3)
C16 C 0.4841(4) 0.2723(3) 0.7111(3)
C17 C 0.5117(5) 0.2710(3) 0.8137(3)
C18 C 0.4693(6) 0.1874(4) 0.8953(3)
C19 C 0.4019(6) 0.1076(4) 0.8764(4)
H5 H 0.3733 0.0524 0.9314
C20 C 0.3765(6) 0.1093(4) 0.7756(5)
C21 C 0.4152(5) 0.1909(4) 0.6931(4)
H6 H 0.3952 0.1914 0.6255
C22 C 0.4760(8) 0.6542(9) 0.6824(8)
H7 H 0.4214 0.6501 0.6242
H8 H 0.4343 0.6059 0.7441
C23 C 0.4410(13) 0.7510(10) 0.6972(15)
H9 H 0.4945 0.7582 0.7538
H10 H 0.3329 0.7630 0.7141
H11 H 0.4705 0.8015 0.6344
Cl1 Cl 0.59093(17) 0.37216(11) 0.84166(10)
Cl2 Cl 0.5000(3) 0.18257(13) 1.02319(10)
Cl3 Cl 0.2883(2) 0.00834(13) 0.75270(18)
Cl4 Cl 0.92932(18) 0.75143(10) 0.71254(9)
Cl5 Cl 0.9913(3) 0.80731(13) 0.91770(13)
Cl6 Cl 1.30169(16) 0.42957(12) 1.04605(9)
Cl7 Cl 0.99008(16) 0.74437(10) 0.20802(9)
Cl8 Cl 1.15537(18) 0.94021(11) 0.08534(9)
Cl9 Cl 1.2778(3) 1.00878(15) 0.44812(15)
O1 O 1.0311(3) 0.6087(2) 0.4550(2)
O2 O 0.8357(3) 0.7216(2) 0.4752(2)
O3 O 1.1736(3) 0.4954(3) 0.6377(2)
O4 O 0.9220(3) 0.5377(2) 0.6717(2)
O5 O 0.4340(3) 0.3850(2) 0.5466(2)
O6 O 0.6466(3) 0.3982(3) 0.6131(2)
O7 O 0.6319(4) 0.6144(3) 0.6622(2)
Tb1 Tb 0.78136(2) 0.53642(2) 0.53148(2)
O1A O 0.9689(3) 0.3913(2) 0.5450(2)
O3A O 0.8264(3) 0.5046(3) 0.3623(2)
O5A O 0.5660(3) 0.6150(2) 0.4534(2)
Tb1A Tb 0.21864(2) 0.46358(2) 0.46852(2)
Tb1A_2 Tb 1.21864(2) 0.46358(2) 0.46852(2)
loop_
_geom_bond_atom_site_label_1
_geom_bond_atom_site_label_2
_geom_bond_site_symmetry_1
_geom_bond_site_symmetry_2
C1 C2 1_555 1_555
C2 C3 1_555 1_555
C3 H1 1_555 1_555
C4 C3 1_555 1_555
C5 C4 1_555 1_555
H2 C5 1_555 1_555
C6 C5 1_555 1_555
C7 C2 1_555 1_555
C8 C9 1_555 1_555
C9 C10 1_555 1_555
C10 C11 1_555 1_555
C11 C12 1_555 1_555
C12 H3 1_555 1_555
C13 C12 1_555 1_555
C14 C9 1_555 1_555
H4 C14 1_555 1_555
C15 C16 1_555 1_555
C16 C17 1_555 1_555
C17 C18 1_555 1_555
C18 C19 1_555 1_555
C19 H5 1_555 1_555
C20 C19 1_555 1_555
C21 C16 1_555 1_555
H6 C21 1_555 1_555
C22 H7 1_555 1_555
H8 C22 1_555 1_555
C23 C22 1_555 1_555
H9 C23 1_555 1_555
H10 C23 1_555 1_555
H11 C23 1_555 1_555
Cl1 C17 1_555 1_555
Cl2 C18 1_555 1_555
Cl3 C20 1_555 1_555
Cl4 C10 1_555 1_555
Cl5 C11 1_555 1_555
Cl6 C13 1_555 1_555
Cl7 C7 1_555 1_555
Cl8 C6 1_555 1_555
Cl9 C4 1_555 1_555
O1 C1 1_555 1_555
O2 C1 1_555 1_555
O3 C8 1_555 1_555
O4 C8 1_555 1_555
O5 C15 1_555 1_555
O6 C15 1_555 1_555
O7 C22 1_555 1_555
Tb1 O1 1_555 1_555
O1A Tb1 1_555 1_555
O3A Tb1 1_555 1_555
O5A Tb1 1_555 1_555
Tb1A O5 1_555 1_555
Tb1A_2 O1 1_555 1_555
C6 C7 1_555 1_555
C13 C14 1_555 1_555
C20 C21 1_555 1_555
O2 Tb1 1_555 1_555
O3 Tb1A_2 1_555 1_555
O4 Tb1 1_555 1_555
O6 Tb1 1_555 1_555
O7 Tb1 1_555 1_555
O1A Tb1A_2 1_555 1_555

#END
