
#######################################################################
#
#                 Cambridge Crystallographic Data Centre
#                                CCDC 
#
#######################################################################
#
# If this CIF has been generated from an entry in the Cambridge 
# Structural Database, then it will include bibliographic, chemical, 
# crystal, experimental, refinement or atomic coordinate data resulting 
# from the CCDC's data processing and validation procedures.
#
#######################################################################

data_ZUMPUU
_symmetry_cell_setting           orthorhombic
_symmetry_space_group_name_H-M   'P 21 21 21'
_symmetry_Int_Tables_number      19
_space_group_name_Hall           'P 2ac 2ab'
loop_
_symmetry_equiv_pos_site_id
_symmetry_equiv_pos_as_xyz
1 x,y,z
2 1/2-x,-y,1/2+z
3 1/2+x,1/2-y,-z
4 -x,1/2+y,1/2-z
_cell_length_a                   8.0555(5)
_cell_length_b                   9.6751(5)
_cell_length_c                   16.0363(9)
_cell_angle_alpha                90
_cell_angle_beta                 90
_cell_angle_gamma                90
_cell_volume                     1249.83
loop_
_atom_site_label
_atom_site_type_symbol
_atom_site_fract_x
_atom_site_fract_y
_atom_site_fract_z
C1 C 1.3619(9) 0.3768(7) 0.6247(4)
C2 C 1.2221(10) 0.2923(6) 0.6173(4)
H1 H 1.2163 0.2101 0.6473
C3 C 1.4971(8) 0.3381(7) 0.6850(4)
C4 C 0.4834(8) 0.9105(6) 0.2742(4)
C5 C 1.0926(9) 0.3298(8) 0.5658(4)
H2 H 1.0009 0.2722 0.5598
C6 C 0.7992(9) 0.5003(7) 0.4977(4)
H3 H 0.7589 0.4613 0.5467
C7 C 0.9649(9) 0.5658(7) 0.3998(4)
H4 H 1.0593 0.5820 0.3678
C8 C 1.2405(10) 0.5383(6) 0.5280(4)
H5 H 1.2458 0.6198 0.4975
C9 C 1.3719(9) 0.4991(8) 0.5791(5)
H6 H 1.4660 0.5544 0.5827
C10 C 1.1005(9) 0.4538(7) 0.5232(4)
N1 N 0.8145(8) 0.6028(6) 0.3797(4)
N2 N 0.9625(7) 0.5000(6) 0.4745(4)
N3 N 0.6290(7) 0.8534(5) 0.2534(3)
N4 N 0.7076(8) 0.9464(5) 0.2019(3)
N5 N 0.3678(7) 0.8540(6) 0.3258(4)
H7 H 0.2785 0.8988 0.3373
H8 H 0.3841 0.7734 0.3468
N6 N 0.7077(8) 0.5618(6) 0.4426(4)
N7 N 0.4707(7) 1.0342(5) 0.2383(4)
N8 N 0.6121(8) 1.0525(6) 0.1935(4)
O1 O 1.4719(6) 0.2521(5) 0.7407(3)
O2 O 1.6375(6) 0.4006(5) 0.6756(3)
Zn1 Zn 0.72520(11) 0.66738(8) 0.26911(5)
N7C N 0.5293(7) 0.5342(5) 0.2617(4)
O2A O 0.8625(6) 0.5994(5) 0.1756(3)
Zn1A Zn 1.77480(11) 0.33262(8) 0.76911(5)
Zn1C Zn 0.27480(11) 1.16738(8) 0.23089(5)
loop_
_geom_bond_atom_site_label_1
_geom_bond_atom_site_label_2
_geom_bond_site_symmetry_1
_geom_bond_site_symmetry_2
C1 C2 1_555 1_555
C2 H1 1_555 1_555
C3 C1 1_555 1_555
C4 N3 1_555 1_555
C5 C2 1_555 1_555
H2 C5 1_555 1_555
C6 H3 1_555 1_555
C7 H4 1_555 1_555
C8 H5 1_555 1_555
C9 C1 1_555 1_555
H6 C9 1_555 1_555
C10 C5 1_555 1_555
N1 C7 1_555 1_555
N2 C6 1_555 1_555
N3 N4 1_555 1_555
N4 N8 1_555 1_555
N5 C4 1_555 1_555
H7 N5 1_555 1_555
H8 N5 1_555 1_555
N6 C6 1_555 1_555
N7 C4 1_555 1_555
N8 N7 1_555 1_555
O1 C3 1_555 1_555
O2 C3 1_555 1_555
Zn1 N1 1_555 1_555
N7C Zn1 1_555 1_555
O2A Zn1 1_555 1_555
Zn1A O2 1_555 1_555
Zn1C N7 1_555 1_555
C7 N2 1_555 1_555
C8 C9 1_555 1_555
C8 C10 1_555 1_555
C10 N2 1_555 1_555
N1 N6 1_555 1_555
N3 Zn1 1_555 1_555

#END
