
#######################################################################
#
#                 Cambridge Crystallographic Data Centre
#                                CCDC 
#
#######################################################################
#
# If this CIF has been generated from an entry in the Cambridge 
# Structural Database, then it will include bibliographic, chemical, 
# crystal, experimental, refinement or atomic coordinate data resulting 
# from the CCDC's data processing and validation procedures.
#
#######################################################################

data_ZUMPII
_symmetry_cell_setting           monoclinic
_symmetry_space_group_name_H-M   'P 21/c'
_symmetry_Int_Tables_number      14
_space_group_name_Hall           '-P 2ybc'
loop_
_symmetry_equiv_pos_site_id
_symmetry_equiv_pos_as_xyz
1 x,y,z
2 -x,1/2+y,1/2-z
3 -x,-y,-z
4 x,1/2-y,1/2+z
_cell_length_a                   16.6873(6)
_cell_length_b                   12.0133(4)
_cell_length_c                   22.3749(7)
_cell_angle_alpha                90
_cell_angle_beta                 95.924(2)
_cell_angle_gamma                90
_cell_volume                     4461.53
loop_
_atom_site_label
_atom_site_type_symbol
_atom_site_fract_x
_atom_site_fract_y
_atom_site_fract_z
Cu1 Cu 0.08096(3) 0.44046(5) 0.54964(3)
Cu2 Cu 0.43600(3) 0.10441(5) 0.49483(2)
O1 O 0.1738(2) 0.2881(3) 0.55795(18)
H1 H 0.161(4) 0.251(5) 0.585(2)
Cl1 Cl 0.01781(7) 0.36435(11) 0.46450(6)
Cl2 Cl 0.42911(6) -0.12153(9) 0.49087(5)
N1 N 0.3147(2) 0.1178(3) 0.48106(17)
N2 N 0.4162(2) 0.0990(3) 0.58070(17)
N3 N 0.4270(2) 0.1175(3) 0.40562(17)
N4 N 0.1599(2) 0.5325(3) 0.51005(19)
N5 N 0.0117(2) 0.3728(4) 0.6072(2)
N6 N 0.1387(2) 0.5081(3) 0.62672(18)
C1 C 0.3441(3) 0.4460(4) 0.6297(2)
H2 H 0.3555 0.4954 0.6626
C2 C 0.2671(3) 0.4027(4) 0.6183(2)
C3 C 0.4059(3) 0.4191(4) 0.5940(2)
C4 C 0.3850(3) 0.3529(4) 0.5441(2)
H3 H 0.4245 0.3382 0.5175
C5 C 0.3086(3) 0.3069(4) 0.5314(2)
C6 C 0.2503(3) 0.3296(4) 0.5700(2)
C7 C 0.0740(3) 0.5205(4) 0.6676(3)
H4 H 0.0412 0.5874 0.6564
H5 H 0.0983 0.5295 0.7096
C8 C -0.0761(3) 0.2380(6) 0.6426(4)
H6 H -0.1105 0.1755 0.6348
C9 C 0.2024(3) 0.4330(4) 0.6574(2)
H7 H 0.1765 0.3640 0.6700
H8 H 0.2275 0.4705 0.6940
C10 C 0.0218(3) 0.4182(5) 0.6623(3)
C11 C -0.0369(3) 0.2835(5) 0.5976(3)
H9 H -0.0440 0.2512 0.5587
C12 C -0.0157(4) 0.3750(6) 0.7091(3)
H10 H -0.0074 0.4077 0.7479
C13 C -0.0652(4) 0.2841(6) 0.6992(4)
H11 H -0.0915 0.2534 0.7310
C14 C 0.2504(3) 0.6854(4) 0.5248(3)
H12 H 0.2763 0.7401 0.5506
C15 C 0.1730(3) 0.6154(4) 0.6094(2)
H13 H 0.2209 0.6336 0.6376
H14 H 0.1327 0.6752 0.6121
C16 C 0.2285(3) 0.5970(5) 0.4291(2)
H15 H 0.2390 0.5904 0.3883
C17 C 0.1763(3) 0.5255(4) 0.4529(2)
H16 H 0.1509 0.4689 0.4280
C18 C 0.1967(3) 0.6103(4) 0.5464(2)
C19 C 0.2655(3) 0.6792(5) 0.4655(3)
H17 H 0.3011 0.7308 0.4497
C20 C 0.3389(3) 0.0772(4) 0.5886(2)
C21 C 0.4476(3) 0.1105(4) 0.6864(2)
H18 H 0.4860 0.1239 0.7200
C22 C 0.4700(3) 0.1162(4) 0.6290(2)
H19 H 0.5244 0.1325 0.6233
C23 C 0.3139(3) 0.0681(5) 0.6456(2)
H20 H 0.2596 0.0502 0.6506
C24 C 0.3692(4) 0.0854(5) 0.6948(2)
H21 H 0.3533 0.0800 0.7342
C25 C 0.2877(3) 0.2380(4) 0.4760(2)
H22 H 0.3123 0.2729 0.4422
H23 H 0.2285 0.2395 0.4660
C26 C 0.3513(3) 0.0999(4) 0.3797(2)
C27 C 0.2922(3) 0.0633(5) 0.4220(2)
H24 H 0.2369 0.0852 0.4061
H25 H 0.2938 -0.0187 0.4266
C28 C 0.3321(4) 0.1148(5) 0.3185(2)
H26 H 0.2788 0.1019 0.3005
C29 C 0.3918(4) 0.1486(5) 0.2843(2)
H27 H 0.3793 0.1614 0.2425
C30 C 0.4848(3) 0.1476(4) 0.3715(2)
H28 H 0.5382 0.1578 0.3900
C31 C 0.4693(4) 0.1641(4) 0.3102(2)
H29 H 0.5110 0.1855 0.2867
C32 C 0.5526(3) 0.4221(4) 0.5707(2)
H30 H 0.6053 0.4555 0.5832
H31 H 0.5356 0.4425 0.5289
H32 H 0.5566 0.3410 0.5741
C33 C 0.4908(3) 0.4650(4) 0.6112(2)
C34 C 0.4891(3) 0.5930(4) 0.6089(3)
H33 H 0.5438 0.6220 0.6185
H34 H 0.4544 0.6213 0.6383
H35 H 0.4680 0.6174 0.5685
C35 C 0.5199(3) 0.4286(4) 0.6751(2)
H36 H 0.5206 0.3471 0.6772
H37 H 0.4835 0.4580 0.7029
H38 H 0.5744 0.4573 0.6862
C36 C 0.2832(3) 0.0599(4) 0.5320(2)
H39 H 0.2782 -0.0206 0.5232
H40 H 0.2290 0.0890 0.5377
Cu1B Cu -0.08096(3) 0.55954(5) 0.45036(3)
Cu2B Cu 0.56400(3) -0.10441(5) 0.50517(2)
Cl1B Cl -0.01781(7) 0.63565(11) 0.53550(6)
Cl2B Cl 0.57089(6) 0.12153(9) 0.50913(5)
Cl3 Cl 0.30395(8) 0.80602(12) 0.27925(6)
O2 O 0.2913(4) 0.6890(5) 0.2713(3)
O3 O 0.2298(3) 0.8620(4) 0.2635(2)
O4 O 0.3319(3) 0.8246(5) 0.3406(2)
O5 O 0.3622(3) 0.8442(6) 0.2423(2)
Cl4 Cl 0.17099(16) 0.3215(2) 0.29998(9)
O6 O 0.1099(7) 0.3979(10) 0.2952(5)
O7 O 0.2007(4) 0.2968(6) 0.2479(2)
O8 O 0.1457(6) 0.2145(11) 0.3192(6)
O9 O 0.2339(8) 0.3553(9) 0.3394(4)
O10 O 0.1225(4) 0.1622(5) 0.6344(3)
H41 H 0.145(6) 0.173(7) 0.6671(15)
H42 H 0.112(7) 0.098(4) 0.624(3)
O11 O 0.1668(5) 0.5795(7) 0.2075(3)
H43 H 0.204(2) 0.615(11) 0.222(5)
H44 H 0.156(7) 0.591(12) 0.1715(16)
O12 O 0.0758(5) 0.1340(6) 0.4149(4)
H45 H 0.100(8) 0.149(7) 0.386(3)
H46 H 0.088(8) 0.074(8) 0.430(2)
O13 O 0.0873(5) 0.9432(8) 0.6003(5)
H47 H 0.041(3) 0.921(14) 0.596(6)
H48 H 0.099(9) 0.940(13) 0.565(4)
O14 O 0.1094(9) 0.9283(11) 0.4810(6)
loop_
_geom_bond_atom_site_label_1
_geom_bond_atom_site_label_2
_geom_bond_site_symmetry_1
_geom_bond_site_symmetry_2
Cu1 O1 1_555 1_555
Cu2 Cl2 1_555 1_555
O1 H1 1_555 1_555
Cl1 Cu1 1_555 1_555
Cl2 Cu2B 1_555 1_555
N1 Cu2 1_555 1_555
N2 Cu2 1_555 1_555
N3 Cu2 1_555 1_555
N4 Cu1 1_555 1_555
N5 Cu1 1_555 1_555
N6 Cu1 1_555 1_555
C1 H2 1_555 1_555
C2 C1 1_555 1_555
C3 C1 1_555 1_555
C4 C3 1_555 1_555
H3 C4 1_555 1_555
C5 C4 1_555 1_555
C6 O1 1_555 1_555
C7 N6 1_555 1_555
H4 C7 1_555 1_555
H5 C7 1_555 1_555
C8 H6 1_555 1_555
C9 N6 1_555 1_555
H7 C9 1_555 1_555
H8 C9 1_555 1_555
C10 N5 1_555 1_555
C11 N5 1_555 1_555
H9 C11 1_555 1_555
C12 C10 1_555 1_555
H10 C12 1_555 1_555
C13 C8 1_555 1_555
H11 C13 1_555 1_555
C14 H12 1_555 1_555
C15 N6 1_555 1_555
H13 C15 1_555 1_555
H14 C15 1_555 1_555
C16 H15 1_555 1_555
C17 N4 1_555 1_555
H16 C17 1_555 1_555
C18 N4 1_555 1_555
C19 C14 1_555 1_555
H17 C19 1_555 1_555
C20 N2 1_555 1_555
C21 H18 1_555 1_555
C22 N2 1_555 1_555
H19 C22 1_555 1_555
C23 C20 1_555 1_555
H20 C23 1_555 1_555
C24 C21 1_555 1_555
H21 C24 1_555 1_555
C25 N1 1_555 1_555
H22 C25 1_555 1_555
H23 C25 1_555 1_555
C26 N3 1_555 1_555
C27 N1 1_555 1_555
H24 C27 1_555 1_555
H25 C27 1_555 1_555
C28 C26 1_555 1_555
H26 C28 1_555 1_555
C29 C28 1_555 1_555
H27 C29 1_555 1_555
C30 N3 1_555 1_555
H28 C30 1_555 1_555
C31 C29 1_555 1_555
H29 C31 1_555 1_555
C32 H30 1_555 1_555
H31 C32 1_555 1_555
H32 C32 1_555 1_555
C33 C3 1_555 1_555
C34 C33 1_555 1_555
H33 C34 1_555 1_555
H34 C34 1_555 1_555
H35 C34 1_555 1_555
C35 C33 1_555 1_555
H36 C35 1_555 1_555
H37 C35 1_555 1_555
H38 C35 1_555 1_555
C36 N1 1_555 1_555
H39 C36 1_555 1_555
H40 C36 1_555 1_555
Cl3 O2 1_555 1_555
O3 Cl3 1_555 1_555
O4 Cl3 1_555 1_555
O5 Cl3 1_555 1_555
Cl4 O6 1_555 1_555
O7 Cl4 1_555 1_555
O8 Cl4 1_555 1_555
O9 Cl4 1_555 1_555
O10 H41 1_555 1_555
H42 O10 1_555 1_555
O11 H43 1_555 1_555
H44 O11 1_555 1_555
O12 H45 1_555 1_555
H46 O12 1_555 1_555
O13 H47 1_555 1_555
H48 O13 1_555 1_555
Cu1B Cl1 1_555 1_555
Cu2B Cl2B 1_555 1_555
Cl1B Cu1 1_555 1_555
Cl2B Cu2 1_555 1_555
C2 C6 1_555 1_555
C2 C9 1_555 1_555
C5 C6 1_555 1_555
C5 C25 1_555 1_555
C7 C10 1_555 1_555
C8 C11 1_555 1_555
C12 C13 1_555 1_555
C14 C18 1_555 1_555
C15 C18 1_555 1_555
C16 C17 1_555 1_555
C16 C19 1_555 1_555
C20 C36 1_555 1_555
C21 C22 1_555 1_555
C23 C24 1_555 1_555
C26 C27 1_555 1_555
C30 C31 1_555 1_555
C32 C33 1_555 1_555
Cu1B Cl1B 1_555 1_555

#END
