
#######################################################################
#
#                 Cambridge Crystallographic Data Centre
#                                CCDC 
#
#######################################################################
#
# If this CIF has been generated from an entry in the Cambridge 
# Structural Database, then it will include bibliographic, chemical, 
# crystal, experimental, refinement or atomic coordinate data resulting 
# from the CCDC's data processing and validation procedures.
#
#######################################################################

data_ZUMTOS
_symmetry_cell_setting           monoclinic
_symmetry_space_group_name_H-M   'P 21/c'
_symmetry_Int_Tables_number      14
_space_group_name_Hall           '-P 2ybc'
loop_
_symmetry_equiv_pos_site_id
_symmetry_equiv_pos_as_xyz
1 x,y,z
2 -x,1/2+y,1/2-z
3 -x,-y,-z
4 x,1/2-y,1/2+z
_cell_length_a                   13.0037(4)
_cell_length_b                   8.9896(3)
_cell_length_c                   20.7495(7)
_cell_angle_alpha                90
_cell_angle_beta                 127.633(2)
_cell_angle_gamma                90
_cell_volume                     1920.91
loop_
_atom_site_label
_atom_site_type_symbol
_atom_site_fract_x
_atom_site_fract_y
_atom_site_fract_z
Cd1 Cd 0.38561(3) -0.06134(4) -0.38169(2)
Br1 Br 0.31052(11) 0.04287(12) -0.51916(5)
O1 O 0.5227(3) -0.2587(4) -0.3375(2)
O2 O 0.6171(4) -0.0384(5) -0.2995(3)
O3 O 0.6843(4) -0.3953(5) -0.1616(2)
O4 O 0.6334(4) -0.5797(4) -0.2482(3)
N1 N 0.2098(4) -0.2189(5) -0.4223(3)
N2 N -0.3615(4) -0.5156(6) -0.5047(3)
C1 C 0.0918(5) -0.1812(7) -0.4888(3)
H1 H 0.0860 -0.1111 -0.5251
C2 C 0.2153(5) -0.3212(6) -0.3738(3)
H2 H 0.2983 -0.3515 -0.3269
C3 C -0.0224(5) -0.2389(7) -0.5075(3)
H3 H -0.1041 -0.2067 -0.5549
C4 C 0.1071(5) -0.3849(6) -0.3882(3)
H4 H 0.1165 -0.4569 -0.3514
C5 C -0.0160(5) -0.3447(6) -0.4562(3)
C6 C -0.1365(5) -0.4074(6) -0.4741(3)
C7 C -0.2573(5) -0.3875(7) -0.5495(3)
H5 H -0.2635 -0.3365 -0.5918
C8 C -0.1350(6) -0.4878(10) -0.4170(4)
H6 H -0.0542 -0.5055 -0.3654
C9 C -0.3673(5) -0.4421(7) -0.5623(4)
H7 H -0.4493 -0.4268 -0.6136
C10 C -0.2459(7) -0.5432(9) -0.4322(4)
H8 H -0.2416 -0.6004 -0.3921
C11 C -0.4818(6) -0.5607(7) -0.5174(4)
H9 H -0.4682 -0.6566 -0.4897
H10 H -0.5527 -0.5737 -0.5763
C12 C 0.6225(5) -0.1766(6) -0.3022(3)
C13 C 0.7495(5) -0.2509(6) -0.2666(3)
C14 C 0.8378(6) -0.1859(7) -0.2741(4)
H11 H 0.8174 -0.0930 -0.3012
C15 C 0.9556(5) -0.2530(8) -0.2429(4)
H12 H 1.0156 -0.2070 -0.2484
C16 C 0.9842(6) -0.3883(8) -0.2036(4)
H13 H 1.0661 -0.4334 -0.1801
C17 C 0.8946(6) -0.4599(7) -0.1977(4)
H14 H 0.9136 -0.5549 -0.1727
C18 C 0.7774(5) -0.3897(6) -0.2291(3)
C19 C 0.6891(5) -0.4613(6) -0.2141(3)
N1B N -1.2098(4) -0.7811(5) -0.5777(3)
N2B N -0.6385(4) -0.4844(6) -0.4953(3)
C1B C -1.0918(5) -0.8188(7) -0.5112(3)
H1B H -1.0860 -0.8889 -0.4749
C2B C -1.2153(5) -0.6788(6) -0.6262(3)
H2B H -1.2983 -0.6485 -0.6731
C3B C -0.9776(5) -0.7611(7) -0.4925(3)
H3B H -0.8959 -0.7933 -0.4451
C4B C -1.1071(5) -0.6151(6) -0.6118(3)
H4B H -1.1165 -0.5431 -0.6486
C5B C -0.9840(5) -0.6553(6) -0.5438(3)
C6B C -0.8635(5) -0.5926(6) -0.5259(3)
C7B C -0.7427(5) -0.6125(7) -0.4505(3)
H5B H -0.7365 -0.6635 -0.4082
C8B C -0.8650(6) -0.5122(10) -0.5830(4)
H6B H -0.9458 -0.4945 -0.6346
C9B C -0.6327(5) -0.5579(7) -0.4377(4)
H7B H -0.5507 -0.5732 -0.3864
C10B C -0.7541(7) -0.4568(9) -0.5678(4)
H8B H -0.7584 -0.3996 -0.6079
C11B C -0.5182(6) -0.4393(7) -0.4826(4)
H9B H -0.5318 -0.3434 -0.5103
H10B H -0.4473 -0.4263 -0.4237
Cd1B Cd -1.38561(3) -0.93866(4) -0.61831(2)
Br1B Br -1.31052(11) -1.04287(12) -0.48084(5)
O1B O -1.5227(3) -0.7413(4) -0.6625(2)
O2B O -1.6171(4) -0.9616(5) -0.7005(3)
O3B O -1.6843(4) -0.6047(5) -0.8384(2)
O4B O -1.6334(4) -0.4203(4) -0.7518(3)
C12B C -1.6225(5) -0.8234(6) -0.6978(3)
C13B C -1.7495(5) -0.7491(6) -0.7334(3)
C14B C -1.8378(6) -0.8141(7) -0.7259(4)
H11B H -1.8174 -0.9070 -0.6988
C15B C -1.9556(5) -0.7470(8) -0.7571(4)
H12B H -2.0156 -0.7930 -0.7516
C16B C -1.9842(6) -0.6117(8) -0.7964(4)
H13B H -2.0661 -0.5666 -0.8199
C17B C -1.8946(6) -0.5401(7) -0.8023(4)
H14B H -1.9136 -0.4451 -0.8273
C18B C -1.7774(5) -0.6103(6) -0.7709(3)
C19B C -1.6891(5) -0.5387(6) -0.7859(3)
Cd1A Cd 0.61439(3) -0.56134(4) -0.11831(2)
Cd1C Cd -1.61439(3) -0.43866(4) -0.88169(2)
O3A O 0.3157(4) 0.1047(5) -0.3384(2)
O3C O -1.3157(4) -1.1047(5) -0.6616(2)
O5 O 0.3011(9) -0.2486(9) -0.1673(5)
H15 H 0.307(7) -0.325(9) -0.168(4)
H16 H 0.361(12) -0.257(16) -0.169(9)
loop_
_geom_bond_atom_site_label_1
_geom_bond_atom_site_label_2
_geom_bond_site_symmetry_1
_geom_bond_site_symmetry_2
Cd1 Br1 1_555 1_555
O1 Cd1 1_555 1_555
O2 Cd1 1_555 1_555
O3 C19 1_555 1_555
O4 C19 1_555 1_555
N1 Cd1 1_555 1_555
N2 C9 1_555 1_555
C1 N1 1_555 1_555
H1 C1 1_555 1_555
C2 N1 1_555 1_555
H2 C2 1_555 1_555
C3 C1 1_555 1_555
H3 C3 1_555 1_555
C4 C2 1_555 1_555
H4 C4 1_555 1_555
C5 C3 1_555 1_555
C6 C5 1_555 1_555
C7 C6 1_555 1_555
H5 C7 1_555 1_555
C8 C6 1_555 1_555
H6 C8 1_555 1_555
C9 C7 1_555 1_555
H7 C9 1_555 1_555
C10 N2 1_555 1_555
H8 C10 1_555 1_555
C11 N2 1_555 1_555
H9 C11 1_555 1_555
H10 C11 1_555 1_555
C12 O1 1_555 1_555
C13 C12 1_555 1_555
C14 C13 1_555 1_555
H11 C14 1_555 1_555
C15 C14 1_555 1_555
H12 C15 1_555 1_555
C16 C15 1_555 1_555
H13 C16 1_555 1_555
C17 C16 1_555 1_555
H14 C17 1_555 1_555
C18 C13 1_555 1_555
C19 C18 1_555 1_555
O5 H15 1_555 1_555
H16 O5 1_555 1_555
N1B C1B 1_555 1_555
N2B C9B 1_555 1_555
C1B H1B 1_555 1_555
C2B N1B 1_555 1_555
H2B C2B 1_555 1_555
C3B C1B 1_555 1_555
H3B C3B 1_555 1_555
C4B C2B 1_555 1_555
H4B C4B 1_555 1_555
C5B C3B 1_555 1_555
C6B C5B 1_555 1_555
C7B C6B 1_555 1_555
H5B C7B 1_555 1_555
C8B C6B 1_555 1_555
H6B C8B 1_555 1_555
C9B C7B 1_555 1_555
H7B C9B 1_555 1_555
C10B N2B 1_555 1_555
H8B C10B 1_555 1_555
C11B C11 1_555 1_555
H9B C11B 1_555 1_555
H10B C11B 1_555 1_555
Cd1B N1B 1_555 1_555
Br1B Cd1B 1_555 1_555
O1B Cd1B 1_555 1_555
O2B Cd1B 1_555 1_555
O3B C19B 1_555 1_555
O4B C19B 1_555 1_555
C12B O1B 1_555 1_555
C13B C12B 1_555 1_555
C14B C13B 1_555 1_555
H11B C14B 1_555 1_555
C15B C14B 1_555 1_555
H12B C15B 1_555 1_555
C16B C15B 1_555 1_555
H13B C16B 1_555 1_555
C17B C16B 1_555 1_555
H14B C17B 1_555 1_555
C18B C13B 1_555 1_555
C19B C18B 1_555 1_555
Cd1A O3 1_555 1_555
Cd1C O3B 1_555 1_555
O3A Cd1 1_555 1_555
O3C Cd1B 1_555 1_555
O2 C12 1_555 1_555
C4 C5 1_555 1_555
C8 C10 1_555 1_555
C17 C18 1_555 1_555
N2B C11B 1_555 1_555
C4B C5B 1_555 1_555
C8B C10B 1_555 1_555
O2B C12B 1_555 1_555
C17B C18B 1_555 1_555

#END
