
#######################################################################
#
#                 Cambridge Crystallographic Data Centre
#                                CCDC 
#
#######################################################################
#
# If this CIF has been generated from an entry in the Cambridge 
# Structural Database, then it will include bibliographic, chemical, 
# crystal, experimental, refinement or atomic coordinate data resulting 
# from the CCDC's data processing and validation procedures.
#
#######################################################################

data_ZUMVEK
_symmetry_cell_setting           monoclinic
_symmetry_space_group_name_H-M   'P n'
_symmetry_Int_Tables_number      7
_space_group_name_Hall           'P -2yac'
loop_
_symmetry_equiv_pos_site_id
_symmetry_equiv_pos_as_xyz
1 x,y,z
2 1/2+x,-y,1/2+z
_cell_length_a                   10.9029(11)
_cell_length_b                   13.9467(13)
_cell_length_c                   12.5057(11)
_cell_angle_alpha                90
_cell_angle_beta                 94.5320(10)
_cell_angle_gamma                90
_cell_volume                     1895.66
loop_
_atom_site_label
_atom_site_type_symbol
_atom_site_fract_x
_atom_site_fract_y
_atom_site_fract_z
Cu1 Cu 0.33854(4) 0.70960(2) 0.86501(3)
O1 O 0.1716(3) 0.6568(2) 0.9416(2)
H1 H 0.1544 0.5981 0.9302
H2 H 0.1649 0.6766 1.0052
N1 N 0.4255(4) 0.7154(2) 1.0234(3)
N2 N 0.4303(3) 0.5851(2) 0.8778(2)
N3 N 0.4510(3) 0.5141(2) 0.8072(2)
N4 N 0.5349(3) 0.4765(2) 0.9679(2)
N5 N 0.6247(5) 0.2951(3) 0.6486(3)
N6 N 0.7395(3) 0.3309(2) 1.2148(2)
N7 N 0.4756(3) 0.7987(2) 0.7873(3)
N8 N 0.2671(3) 0.8409(2) 0.8661(2)
N9 N 0.1641(3) 0.8763(2) 0.9068(2)
N10 N 0.2519(3) 0.99063(19) 0.8174(2)
N11 N -0.1605(3) 1.0420(3) 0.9211(3)
N12 N 0.2711(4) 1.2276(3) 0.6120(3)
C1 C 0.5123(5) 0.6174(3) 1.1674(4)
H3 H 0.5447 0.5588 1.1914
C2 C 0.5003(6) 0.6935(4) 1.2375(4)
H4 H 0.5228 0.6864 1.3103
C3 C 0.4548(5) 0.7794(3) 1.1977(5)
H5 H 0.4494 0.8318 1.2431
C4 C 0.4182(5) 0.7873(3) 1.0926(5)
H6 H 0.3864 0.8457 1.0673
C5 C 0.4741(4) 0.6321(2) 1.0607(3)
C6 C 0.4804(3) 0.5629(3) 0.9734(3)
C7 C 0.5157(4) 0.4499(3) 0.8615(3)
C8 C 0.5606(4) 0.3637(2) 0.8117(3)
C9 C 0.5901(5) 0.3706(3) 0.7053(3)
H7 H 0.5856 0.4303 0.6723
C10 C 0.6350(5) 0.2117(3) 0.6980(4)
H8 H 0.6593 0.1589 0.6593
C11 C 0.6119(4) 0.1981(3) 0.8029(4)
H9 H 0.6221 0.1379 0.8344
C12 C 0.5736(4) 0.2745(3) 0.8613(3)
H10 H 0.5566 0.2667 0.9325
C13 C 0.6062(3) 0.4247(2) 1.0514(3)
C14 C 0.5461(4) 0.3728(3) 1.1251(3)
H11 H 0.4607 0.3686 1.1205
C15 C 0.6174(4) 0.3273(3) 1.2061(3)
H12 H 0.5781 0.2926 1.2569
C16 C 0.7951(4) 0.3773(2) 1.1392(3)
H13 H 0.8806 0.3770 1.1427
C17 C 0.7319(4) 0.4261(3) 1.0558(3)
H14 H 0.7734 0.4586 1.0046
C18 C 0.5874(4) 0.7748(3) 0.7628(4)
H15 H 0.6109 0.7109 0.7693
C19 C 0.6709(4) 0.8398(3) 0.7282(4)
H16 H 0.7496 0.8206 0.7138
C20 C 0.6346(4) 0.9336(3) 0.7157(4)
H17 H 0.6884 0.9790 0.6914
C21 C 0.5187(4) 0.9603(3) 0.7392(3)
H18 H 0.4932 1.0237 0.7311
C22 C 0.4408(3) 0.8920(2) 0.7748(3)
C23 C 0.3204(3) 0.9089(2) 0.8139(3)
C24 C 0.1551(3) 0.9671(2) 0.8766(3)
C25 C 0.0552(4) 1.0291(2) 0.9060(3)
C26 C -0.0639(4) 0.9952(3) 0.8921(3)
H19 H -0.0766 0.9355 0.8601
C27 C -0.1410(4) 1.1268(3) 0.9681(4)
H20 H -0.2084 1.1607 0.9893
C28 C -0.0268(4) 1.1667(3) 0.9866(4)
H21 H -0.0171 1.2263 1.0196
C29 C 0.0736(4) 1.1170(3) 0.9555(3)
H22 H 0.1525 1.1422 0.9676
C30 C 0.2608(3) 1.0734(2) 0.7487(3)
C31 C 0.2889(4) 1.1628(3) 0.7901(3)
H23 H 0.3057 1.1727 0.8634
C32 C 0.2909(4) 1.2382(3) 0.7165(4)
H24 H 0.3073 1.2996 0.7430
C33 C 0.2447(5) 1.1407(3) 0.5753(4)
H25 H 0.2298 1.1327 0.5016
C34 C 0.2381(4) 1.0615(3) 0.6397(3)
H26 H 0.2189 1.0015 0.6105
Cu1A Cu 0.83854(4) 0.29040(2) 1.36501(3)
N6A N 0.2395(3) 0.6691(2) 0.7148(2)
Cl1 Cl 0.46295(10) 0.08231(8) 0.07243(8)
O2 O 0.4122(12) 0.0169(5) 0.1273(10)
O3 O 0.3868(5) 0.1634(4) 0.0490(4)
O4 O 0.5628(9) 0.1163(6) 0.1303(11)
O5 O 0.5049(6) 0.0392(5) -0.0178(4)
Cl2 Cl 0.18418(11) 0.40772(7) 0.00704(10)
O6 O 0.1523(10) 0.4597(4) -0.0893(6)
O7 O 0.2401(10) 0.3278(5) -0.0261(8)
O8 O 0.0744(9) 0.3946(8) 0.0434(9)
O9 O 0.2613(4) 0.4682(3) 0.0720(4)
O10 O 0.8567(16) 0.6430(17) 0.8874(16)
C35 C 0.7481(18) 0.5715(10) 0.8465(10)
O11? O 0.7452(6) 0.6338(4) 0.9430(5)
C36? C 0.8710(17) 0.667(3) 0.938(2)
loop_
_geom_bond_atom_site_label_1
_geom_bond_atom_site_label_2
_geom_bond_site_symmetry_1
_geom_bond_site_symmetry_2
Cu1 O1 1_555 1_555
O1 H1 1_555 1_555
H2 O1 1_555 1_555
N1 Cu1 1_555 1_555
N2 Cu1 1_555 1_555
N3 N2 1_555 1_555
N4 C6 1_555 1_555
N5 C9 1_555 1_555
N6 C15 1_555 1_555
N7 Cu1 1_555 1_555
N8 Cu1 1_555 1_555
N9 N8 1_555 1_555
N10 C23 1_555 1_555
N11 C26 1_555 1_555
N12 C32 1_555 1_555
C1 H3 1_555 1_555
C2 C1 1_555 1_555
H4 C2 1_555 1_555
C3 C2 1_555 1_555
H5 C3 1_555 1_555
C4 N1 1_555 1_555
H6 C4 1_555 1_555
C5 N1 1_555 1_555
C6 N2 1_555 1_555
C7 N3 1_555 1_555
C8 C7 1_555 1_555
C9 C8 1_555 1_555
H7 C9 1_555 1_555
C10 N5 1_555 1_555
H8 C10 1_555 1_555
C11 C10 1_555 1_555
H9 C11 1_555 1_555
C12 C8 1_555 1_555
H10 C12 1_555 1_555
C13 N4 1_555 1_555
C14 C13 1_555 1_555
H11 C14 1_555 1_555
C15 C14 1_555 1_555
H12 C15 1_555 1_555
C16 N6 1_555 1_555
H13 C16 1_555 1_555
C17 C13 1_555 1_555
H14 C17 1_555 1_555
C18 N7 1_555 1_555
H15 C18 1_555 1_555
C19 C18 1_555 1_555
H16 C19 1_555 1_555
C20 C19 1_555 1_555
H17 C20 1_555 1_555
C21 C20 1_555 1_555
H18 C21 1_555 1_555
C22 N7 1_555 1_555
C23 N8 1_555 1_555
C24 N9 1_555 1_555
C25 C24 1_555 1_555
C26 C25 1_555 1_555
H19 C26 1_555 1_555
C27 N11 1_555 1_555
H20 C27 1_555 1_555
C28 C27 1_555 1_555
H21 C28 1_555 1_555
C29 C25 1_555 1_555
H22 C29 1_555 1_555
C30 N10 1_555 1_555
C31 C30 1_555 1_555
H23 C31 1_555 1_555
C32 C31 1_555 1_555
H24 C32 1_555 1_555
C33 N12 1_555 1_555
H25 C33 1_555 1_555
C34 C30 1_555 1_555
H26 C34 1_555 1_555
Cl1 O2 1_555 1_555
O3 Cl1 1_555 1_555
O4 Cl1 1_555 1_555
O5 Cl1 1_555 1_555
Cl2 O6 1_555 1_555
O7 Cl2 1_555 1_555
O8 Cl2 1_555 1_555
O9 Cl2 1_555 1_555
O10 C35 1_555 1_555
Cu1A N6 1_555 1_555
N6A Cu1 1_555 1_555
N4 C7 1_555 1_555
N10 C24 1_555 1_555
C1 C5 1_555 1_555
C3 C4 1_555 1_555
C5 C6 1_555 1_555
C11 C12 1_555 1_555
C16 C17 1_555 1_555
C21 C22 1_555 1_555
C22 C23 1_555 1_555
C28 C29 1_555 1_555
C33 C34 1_555 1_555

#END
