
#######################################################################
#
#                 Cambridge Crystallographic Data Centre
#                                CCDC 
#
#######################################################################
#
# If this CIF has been generated from an entry in the Cambridge 
# Structural Database, then it will include bibliographic, chemical, 
# crystal, experimental, refinement or atomic coordinate data resulting 
# from the CCDC's data processing and validation procedures.
#
#######################################################################

data_ZUMVAG
_symmetry_cell_setting           monoclinic
_symmetry_space_group_name_H-M   'P 21/n'
_symmetry_Int_Tables_number      14
_space_group_name_Hall           '-P 2yn'
loop_
_symmetry_equiv_pos_site_id
_symmetry_equiv_pos_as_xyz
1 x,y,z
2 1/2-x,1/2+y,1/2-z
3 -x,-y,-z
4 1/2+x,1/2-y,1/2+z
_cell_length_a                   8.359(5)
_cell_length_b                   15.048(9)
_cell_length_c                   16.779(11)
_cell_angle_alpha                90
_cell_angle_beta                 100.478(12)
_cell_angle_gamma                90
_cell_volume                     2075.37
loop_
_atom_site_label
_atom_site_type_symbol
_atom_site_fract_x
_atom_site_fract_y
_atom_site_fract_z
Cu1 Cu 0.88248(5) 0.21758(3) 0.93473(2)
N1 N 0.8352(3) 0.35217(18) 0.94823(16)
N2 N 0.9059(3) 0.26390(16) 0.82577(15)
N3 N 0.9122(3) 0.22415(17) 0.75247(15)
N4 N 0.8343(3) 0.36297(16) 0.73304(15)
N5 N 0.6456(3) 0.27758(17) 0.48661(16)
N6 N 0.6820(3) 0.59844(17) 0.61292(16)
N7 N 0.8154(4) 0.1909(2) 1.03672(18)
N8 N 0.7707(3) 0.1205(2) 1.05634(18)
N9 N 0.7256(5) 0.0544(3) 1.0778(3)
C1 C 0.8110(4) 0.3923(2) 1.0158(2)
H1 H 0.8127 0.3584 1.0624
C2 C 0.7836(5) 0.4823(3) 1.0187(3)
H2 H 0.7648 0.5089 1.0662
C3 C 0.7845(5) 0.5321(3) 0.9504(3)
H3 H 0.7664 0.5930 0.9513
C4 C 0.8123(5) 0.4919(2) 0.8803(2)
H4 H 0.8160 0.5251 0.8339
C5 C 0.8343(4) 0.4014(2) 0.8809(2)
C6 C 0.8595(4) 0.3461(2) 0.81330(18)
C7 C 0.8685(3) 0.2849(2) 0.69747(18)
C8 C 0.8411(4) 0.27330(19) 0.60975(19)
C9 C 0.6856(4) 0.2854(2) 0.56686(19)
H5 H 0.6039 0.2999 0.5956
C10 C 0.7632(4) 0.2554(2) 0.4466(2)
H6 H 0.7373 0.2498 0.3905
C11 C 0.9213(4) 0.2402(2) 0.4841(2)
H7 H 0.9997 0.2242 0.4539
C12 C 0.9618(4) 0.2493(2) 0.5672(2)
H8 H 1.0678 0.2395 0.5941
C13 C 0.7820(4) 0.4443(2) 0.69172(18)
C14 C 0.6216(4) 0.4686(2) 0.6819(2)
H9 H 0.5459 0.4334 0.7015
C15 C 0.5769(4) 0.5471(2) 0.6421(2)
H10 H 0.4687 0.5649 0.6353
C16 C 0.8362(4) 0.5727(2) 0.6222(2)
H11 H 0.9096 0.6083 0.6013
C17 C 0.8917(4) 0.4953(2) 0.6615(2)
H12 H 1.0002 0.4784 0.6673
Cu1A Cu 0.61752(5) 0.71758(3) 0.56527(2)
Cu1C Cu 0.38248(5) 0.28242(3) 0.43473(2)
N5C N 1.1456(3) 0.22242(17) 0.98661(16)
N6A N 0.8180(3) 0.09844(17) 0.88708(16)
O1 O 0.5278(5) 0.2846(3) 0.7727(3)
O2 O 0.4966(6) 0.1652(3) 0.7048(3)
O3 O 0.2974(5) 0.2331(3) 0.7385(3)
N10 N 0.4448(5) 0.2262(3) 0.7400(3)
O4 O 0.2059(4) 0.4075(2) 0.7945(2)
H13 H 0.2399 0.3665 0.7670
H14 H 0.2708 0.4511 0.7923
O5 O 0.1305(5) 0.0724(2) 0.6998(2)
H15 H 0.2161 0.0974 0.7256
H16 H 0.0526 0.1043 0.7104
loop_
_geom_bond_atom_site_label_1
_geom_bond_atom_site_label_2
_geom_bond_site_symmetry_1
_geom_bond_site_symmetry_2
Cu1 N1 1_555 1_555
N1 C1 1_555 1_555
N2 Cu1 1_555 1_555
N3 N2 1_555 1_555
N4 C6 1_555 1_555
N5 C9 1_555 1_555
N6 C15 1_555 1_555
N7 Cu1 1_555 1_555
N8 N7 1_555 1_555
N9 N8 1_555 1_555
C1 H1 1_555 1_555
C2 C1 1_555 1_555
H2 C2 1_555 1_555
C3 C2 1_555 1_555
H3 C3 1_555 1_555
C4 C3 1_555 1_555
H4 C4 1_555 1_555
C5 N1 1_555 1_555
C6 N2 1_555 1_555
C7 N3 1_555 1_555
C8 C7 1_555 1_555
C9 C8 1_555 1_555
H5 C9 1_555 1_555
C10 N5 1_555 1_555
H6 C10 1_555 1_555
C11 C10 1_555 1_555
H7 C11 1_555 1_555
C12 C8 1_555 1_555
H8 C12 1_555 1_555
C13 N4 1_555 1_555
C14 C13 1_555 1_555
H9 C14 1_555 1_555
C15 C14 1_555 1_555
H10 C15 1_555 1_555
C16 N6 1_555 1_555
H11 C16 1_555 1_555
C17 C13 1_555 1_555
H12 C17 1_555 1_555
O1 N10 1_555 1_555
O2 N10 1_555 1_555
O3 N10 1_555 1_555
O4 H13 1_555 1_555
H14 O4 1_555 1_555
O5 H15 1_555 1_555
H16 O5 1_555 1_555
Cu1A N6 1_555 1_555
Cu1C N5 1_555 1_555
N5C Cu1 1_555 1_555
N6A Cu1 1_555 1_555
N4 C7 1_555 1_555
C4 C5 1_555 1_555
C5 C6 1_555 1_555
C11 C12 1_555 1_555
C16 C17 1_555 1_555

#END
