
#######################################################################
#
#                 Cambridge Crystallographic Data Centre
#                                CCDC 
#
#######################################################################
#
# If this CIF has been generated from an entry in the Cambridge 
# Structural Database, then it will include bibliographic, chemical, 
# crystal, experimental, refinement or atomic coordinate data resulting 
# from the CCDC's data processing and validation procedures.
#
#######################################################################

data_ZUMVOU
_symmetry_cell_setting           monoclinic
_symmetry_space_group_name_H-M   'P 21/c'
_symmetry_Int_Tables_number      14
_space_group_name_Hall           '-P 2ybc'
loop_
_symmetry_equiv_pos_site_id
_symmetry_equiv_pos_as_xyz
1 x,y,z
2 -x,1/2+y,1/2-z
3 -x,-y,-z
4 x,1/2-y,1/2+z
_cell_length_a                   9.2368(18)
_cell_length_b                   12.517(3)
_cell_length_c                   16.062(3)
_cell_angle_alpha                90
_cell_angle_beta                 105.99(3)
_cell_angle_gamma                90
_cell_volume                     1785.19
loop_
_atom_site_label
_atom_site_type_symbol
_atom_site_fract_x
_atom_site_fract_y
_atom_site_fract_z
Cu1 Cu 0.24449(6) 0.20184(4) 0.02057(3)
N1 N 0.0616(4) 0.1274(3) 0.0543(2)
N2 N 0.3529(4) 0.1114(3) 0.1240(2)
N3 N 0.5013(4) 0.0916(3) 0.1662(2)
N4 N 0.3537(4) 0.0096(3) 0.2337(2)
N5 N 0.7622(4) -0.1507(3) 0.3937(2)
N6 N 0.2351(5) -0.1555(4) 0.4336(3)
N7 N 0.1028(5) 0.2569(4) -0.0849(3)
N8 N 0.1261(5) 0.2581(4) -0.1537(3)
N9 N 0.1425(6) 0.2608(5) -0.2218(3)
N10 N 0.4289(6) 0.2318(5) -0.0112(4)
N11 N 0.4705(6) 0.2188(5) -0.0732(4)
N12 N 0.5223(7) 0.2135(5) -0.1290(4)
C1 C -0.0848(5) 0.1349(3) 0.0114(3)
H1 H -0.1125 0.1781 -0.0375
C2 C -0.1969(5) 0.0810(4) 0.0368(3)
H2 H -0.2970 0.0863 0.0045
C3 C -0.1572(5) 0.0193(4) 0.1112(3)
H3 H -0.2304 -0.0172 0.1297
C4 C -0.0068(5) 0.0128(4) 0.1579(3)
H4 H 0.0218 -0.0269 0.2088
C5 C 0.1007(5) 0.0661(3) 0.1277(3)
C6 C 0.2648(5) 0.0623(3) 0.1638(3)
C7 C 0.5003(5) 0.0295(3) 0.2323(3)
C8 C 0.6358(5) -0.0124(3) 0.2950(3)
C9 C 0.7675(5) 0.0485(4) 0.3174(3)
H5 H 0.7691 0.1161 0.2936
C10 C 0.8943(5) 0.0081(4) 0.3745(3)
H6 H 0.9838 0.0467 0.3881
C11 C 0.8874(5) -0.0911(4) 0.4119(3)
H7 H 0.9736 -0.1174 0.4513
C12 C 0.6396(5) -0.1132(3) 0.3341(3)
H8 H 0.5540 -0.1560 0.3181
C13 C 0.3091(5) -0.0459(3) 0.3015(3)
C14 C 0.2476(6) -0.1471(4) 0.2865(3)
H9 H 0.2318 -0.1803 0.2329
C15 C 0.2106(7) -0.1968(4) 0.3550(4)
H10 H 0.1654 -0.2637 0.3451
C16 C 0.2957(6) -0.0591(5) 0.4455(3)
H11 H 0.3137 -0.0292 0.5004
C17 C 0.3348(5) 0.0013(4) 0.3820(3)
H12 H 0.3757 0.0694 0.3932
Cu1A Cu 0.75551(6) -0.29816(4) 0.47943(3)
N5A N 0.2378(4) 0.3493(3) 0.1063(2)
loop_
_geom_bond_atom_site_label_1
_geom_bond_atom_site_label_2
_geom_bond_site_symmetry_1
_geom_bond_site_symmetry_2
Cu1 N1 1_555 1_555
N1 C1 1_555 1_555
N2 Cu1 1_555 1_555
N3 N2 1_555 1_555
N4 C6 1_555 1_555
N5 C11 1_555 1_555
N6 C15 1_555 1_555
N7 Cu1 1_555 1_555
N8 N7 1_555 1_555
N9 N8 1_555 1_555
N10 Cu1 1_555 1_555
N11 N10 1_555 1_555
N12 N11 1_555 1_555
C1 H1 1_555 1_555
C2 C1 1_555 1_555
H2 C2 1_555 1_555
C3 C2 1_555 1_555
H3 C3 1_555 1_555
C4 C3 1_555 1_555
H4 C4 1_555 1_555
C5 N1 1_555 1_555
C6 N2 1_555 1_555
C7 N3 1_555 1_555
C8 C7 1_555 1_555
C9 C8 1_555 1_555
H5 C9 1_555 1_555
C10 C9 1_555 1_555
H6 C10 1_555 1_555
C11 C10 1_555 1_555
H7 C11 1_555 1_555
C12 N5 1_555 1_555
H8 C12 1_555 1_555
C13 N4 1_555 1_555
C14 C13 1_555 1_555
H9 C14 1_555 1_555
C15 C14 1_555 1_555
H10 C15 1_555 1_555
C16 N6 1_555 1_555
H11 C16 1_555 1_555
C17 C13 1_555 1_555
H12 C17 1_555 1_555
Cu1A N5 1_555 1_555
N5A Cu1 1_555 1_555
N4 C7 1_555 1_555
C4 C5 1_555 1_555
C5 C6 1_555 1_555
C8 C12 1_555 1_555
C16 C17 1_555 1_555

#END
