
#######################################################################
#
#                 Cambridge Crystallographic Data Centre
#                                CCDC 
#
#######################################################################
#
# If this CIF has been generated from an entry in the Cambridge 
# Structural Database, then it will include bibliographic, chemical, 
# crystal, experimental, refinement or atomic coordinate data resulting 
# from the CCDC's data processing and validation procedures.
#
#######################################################################

data_ZUMWOT
_symmetry_cell_setting           monoclinic
_symmetry_space_group_name_H-M   'P 21/c'
_symmetry_Int_Tables_number      14
_space_group_name_Hall           '-P 2ybc'
loop_
_symmetry_equiv_pos_site_id
_symmetry_equiv_pos_as_xyz
1 x,y,z
2 -x,1/2+y,1/2-z
3 -x,-y,-z
4 x,1/2-y,1/2+z
_cell_length_a                   8.549(2)
_cell_length_b                   20.952(4)
_cell_length_c                   14.046(3)
_cell_angle_alpha                90
_cell_angle_beta                 96.41(2)
_cell_angle_gamma                90
_cell_volume                     2500.17
loop_
_atom_site_label
_atom_site_type_symbol
_atom_site_fract_x
_atom_site_fract_y
_atom_site_fract_z
Sn1 Sn -0.76213(4) 0.42516(2) -0.24072(2)
Sn2 Sn -0.27326(4) 0.25603(2) -0.50168(2)
N1 N -0.2653(5) 0.3908(2) -0.3663(3)
N2 N -0.1779(5) 0.3473(2) -0.4073(3)
N3 N -0.0266(5) 0.3570(2) -0.3852(3)
N4 N -0.0106(5) 0.4089(2) -0.3278(3)
N5 N -0.3555(5) 0.3388(2) -0.0836(3)
N6 N -0.4996(5) 0.3623(2) -0.0880(3)
N7 N -0.5009(5) 0.4187(2) -0.1338(3)
N8 N -0.2586(5) 0.3790(2) -0.1248(3)
C1 C -0.1587(6) 0.4283(2) -0.3180(3)
C2 C -0.3525(6) 0.4276(2) -0.1550(3)
C3 C -0.2962(5) 0.4873(2) -0.1948(3)
C4 C -0.1961(5) 0.4872(2) -0.2685(3)
C5 C -0.1366(6) 0.5452(3) -0.2967(4)
C6 C -0.1771(6) 0.6021(3) -0.2568(4)
C7 C -0.2797(6) 0.6019(3) -0.1858(4)
C8 C -0.3375(6) 0.5450(2) -0.1558(4)
C9 C -0.6923(6) 0.3337(2) -0.2862(4)
C10 C -0.7584(6) 0.2791(3) -0.2309(4)
C11 C -0.8563(6) 0.4445(3) -0.1089(4)
C12 C -0.8345(7) 0.5143(3) -0.0801(4)
C13 C -0.6981(7) 0.5059(3) -0.3226(4)
C14 C -0.7273(12) 0.4964(4) -0.4295(5)
C15 C -0.3442(7) 0.2160(3) -0.3736(4)
C16 C -0.2175(9) 0.1973(5) -0.2992(5)
C17 C -0.0434(6) 0.2434(2) -0.5449(4)
C18 C 0.0682(6) 0.2052(3) -0.4760(4)
C19 C -0.4402(6) 0.3147(3) -0.5849(4)
C20 C -0.5798(7) 0.3325(3) -0.5317(4)
H1 H -0.0658(6) 0.5455(3) -0.3452(4)
H2 H -0.1353(6) 0.6416(3) -0.2776(4)
H3 H -0.3096(6) 0.6413(3) -0.1582(4)
H4 H -0.4075(6) 0.5452(2) -0.1069(4)
H5 H -0.5795(6) 0.3314(2) -0.2774(4)
H6 H -0.7288(6) 0.3288(2) -0.3530(4)
H7 H -0.7234(6) 0.2391(3) -0.2542(4)
H8 H -0.8713(6) 0.2807(3) -0.2396(4)
H9 H -0.7220(6) 0.2832(3) -0.1640(4)
H10 H -0.8033(6) 0.4182(3) -0.0594(4)
H11 H -0.9666(6) 0.4347(3) -0.1163(4)
H12 H -0.8777(7) 0.5215(3) -0.0209(4)
H13 H -0.8875(7) 0.5409(3) -0.1292(4)
H14 H -0.7242(7) 0.5244(3) -0.0723(4)
H15 H -0.5880(7) 0.5142(3) -0.3060(4)
H16 H -0.7581(7) 0.5420(3) -0.3057(4)
H17 H -0.6962(12) 0.5341(4) -0.4613(5)
H18 H -0.8372(12) 0.4885(4) -0.4475(5)
H19 H -0.6671(12) 0.4607(4) -0.4477(5)
H20 H -0.4067(7) 0.2475(3) -0.3455(4)
H21 H -0.4076(7) 0.1792(3) -0.3912(4)
H22 H -0.2631(9) 0.1803(5) -0.2451(5)
H23 H -0.1540(9) 0.1652(5) -0.3249(5)
H24 H -0.1531(9) 0.2335(5) -0.2792(5)
H25 H -0.0542(6) 0.2216(2) -0.6054(4)
H26 H 0.0018(6) 0.2848(2) -0.5523(4)
H27 H 0.1682(6) 0.2016(3) -0.5006(4)
H28 H 0.0816(6) 0.2266(3) -0.4152(4)
H29 H 0.0256(6) 0.1634(3) -0.4682(4)
H30 H -0.3887(6) 0.3533(3) -0.6012(4)
H31 H -0.4782(6) 0.2922(3) -0.6424(4)
H32 H -0.6513(7) 0.3589(3) -0.5719(4)
H33 H -0.6329(7) 0.2944(3) -0.5154(4)
H34 H -0.5434(7) 0.3554(3) -0.4742(4)
Sn1_2 Sn 0.23787(4) 0.42516(2) -0.24072(2)
N5C N -0.3555(5) 0.1612(2) -0.5836(3)
Sn2C Sn -0.27326(4) 0.24397(2) -0.00168(2)
N4_2 N -1.0106(5) 0.4089(2) -0.3278(3)
loop_
_geom_bond_atom_site_label_1
_geom_bond_atom_site_label_2
_geom_bond_site_symmetry_1
_geom_bond_site_symmetry_2
Sn1 N7 1_555 1_555
Sn2 N2 1_555 1_555
N1 N2 1_555 1_555
N2 N3 1_555 1_555
N3 N4 1_555 1_555
N4 C1 1_555 1_555
N5 N6 1_555 1_555
N6 N7 1_555 1_555
N7 C2 1_555 1_555
N8 N5 1_555 1_555
C1 N1 1_555 1_555
C2 N8 1_555 1_555
C3 C2 1_555 1_555
C4 C1 1_555 1_555
C5 C4 1_555 1_555
C6 C5 1_555 1_555
C7 C6 1_555 1_555
C8 C3 1_555 1_555
C9 Sn1 1_555 1_555
C10 C9 1_555 1_555
C11 Sn1 1_555 1_555
C12 C11 1_555 1_555
C13 Sn1 1_555 1_555
C14 C13 1_555 1_555
C15 Sn2 1_555 1_555
C16 C15 1_555 1_555
C17 Sn2 1_555 1_555
C18 C17 1_555 1_555
C19 Sn2 1_555 1_555
C20 C19 1_555 1_555
H1 C5 1_555 1_555
H2 C6 1_555 1_555
H3 C7 1_555 1_555
H4 C8 1_555 1_555
H5 C9 1_555 1_555
H6 C9 1_555 1_555
H7 C10 1_555 1_555
H8 C10 1_555 1_555
H9 C10 1_555 1_555
H10 C11 1_555 1_555
H11 C11 1_555 1_555
H12 C12 1_555 1_555
H13 C12 1_555 1_555
H14 C12 1_555 1_555
H15 C13 1_555 1_555
H16 C13 1_555 1_555
H17 C14 1_555 1_555
H18 C14 1_555 1_555
H19 C14 1_555 1_555
H20 C15 1_555 1_555
H21 C15 1_555 1_555
H22 C16 1_555 1_555
H23 C16 1_555 1_555
H24 C16 1_555 1_555
H25 C17 1_555 1_555
H26 C17 1_555 1_555
H27 C18 1_555 1_555
H28 C18 1_555 1_555
H29 C18 1_555 1_555
H30 C19 1_555 1_555
H31 C19 1_555 1_555
H32 C20 1_555 1_555
H33 C20 1_555 1_555
H34 C20 1_555 1_555
Sn1_2 N4 1_555 1_555
N5C Sn2 1_555 1_555
Sn2C N5 1_555 1_555
N4_2 Sn1 1_555 1_555
C3 C4 1_555 1_555
C7 C8 1_555 1_555

#END
