
#######################################################################
#
#                 Cambridge Crystallographic Data Centre
#                                CCDC 
#
#######################################################################
#
# If this CIF has been generated from an entry in the Cambridge 
# Structural Database, then it will include bibliographic, chemical, 
# crystal, experimental, refinement or atomic coordinate data resulting 
# from the CCDC's data processing and validation procedures.
#
#######################################################################

data_ZUMXEK
_symmetry_cell_setting           triclinic
_symmetry_space_group_name_H-M   'P -1'
_symmetry_Int_Tables_number      2
_space_group_name_Hall           '-P 1'
loop_
_symmetry_equiv_pos_site_id
_symmetry_equiv_pos_as_xyz
1 x,y,z
2 -x,-y,-z
_cell_length_a                   13.154(3)
_cell_length_b                   15.041(5)
_cell_length_c                   16.444(3)
_cell_angle_alpha                100.07(2)
_cell_angle_beta                 104.43(2)
_cell_angle_gamma                92.21(2)
_cell_volume                     3090.73
loop_
_atom_site_label
_atom_site_type_symbol
_atom_site_fract_x
_atom_site_fract_y
_atom_site_fract_z
Sn1 Sn 0.5054(1) 0.5233(1) 0.3301(1)
Sn2 Sn 0.2351(1) 0.1441(1) 0.3050(1)
Sn3 Sn -0.0722(1) 0.7945(1) 0.2943(1)
N1 N 0.2765(10) 0.3029(9) 0.3377(9)
N2 N 0.3670(10) 0.3350(10) 0.3259(10)
N3 N 0.3715(10) 0.4242(9) 0.3452(10)
N4 N 0.2907(10) 0.4507(8) 0.3715(9)
N5 N 0.1777(11) 0.9827(9) 0.2637(10)
N6 N 0.1061(10) 0.9566(9) 0.3014(10)
N7 N 0.0696(11) 0.8733(10) 0.2658(11)
N8 N 0.1186(12) 0.8419(10) 0.2059(11)
N9 N 0.6487(11) 0.6287(9) 0.3270(11)
N10 N 0.7241(11) 0.6391(10) 0.3995(10)
N11 N 0.8047(11) 0.6872(10) 0.3954(12)
N12 N 0.7810(10) 0.7092(9) 0.3179(11)
C1 C 0.2313(12) 0.3744(11) 0.3674(11)
C2 C 0.1293(12) 0.3717(11) 0.3948(14)
C3 C 0.1101(12) 0.4628(11) 0.4468(13)
C4 C 0.0086(12) 0.4544(11) 0.4732(13)
C5 C 0.1840(12) 0.9108(12) 0.2051(11)
C6 C 0.2524(14) 0.9065(13) 0.1437(13)
C7 C 0.3271(14) 0.8341(13) 0.1546(12)
C8 C 0.4030(18) 0.8336(16) 0.0995(16)
C9 C 0.4745(16) 0.7571(15) 0.1038(13)
C10 C 0.5464(14) 0.7580(12) 0.1942(14)
C11 C 0.6244(13) 0.6868(12) 0.1877(12)
C12 C 0.6819(13) 0.6747(11) 0.2760(13)
C13 C 0.4920(16) 0.6088(14) 0.4447(13)
C14 C 0.4602(40) 0.6955(33) 0.4392(34)
C15 C 0.3708(39) 0.7067(33) 0.4012(33)
C16 C 0.3339(38) 0.7964(32) 0.4205(32)
C17 C 0.6147(16) 0.4171(14) 0.3402(13)
C18 C 0.6605(30) 0.4171(25) 0.2626(20)
C19 C 0.7464(43) 0.3502(45) 0.2653(28)
C20 C 0.7793(43) 0.3381(39) 0.1807(27)
C21 C 0.4058(22) 0.5302(18) 0.2034(15)
C22 C 0.3715(32) 0.4369(15) 0.1444(21)
C23 C 0.3176(40) 0.4504(29) 0.0534(18)
C24 C 0.2401(13) 0.1360(11) 0.4330(11)
C25 C 0.3185(15) 0.0809(13) 0.4743(12)
C26 C 0.3270(18) 0.0783(15) 0.5638(14)
C27 C 0.4088(20) 0.0200(18) 0.6080(17)
C28 C 0.3848(13) 0.1238(12) 0.2792(11)
C29 C 0.3967(15) 0.1406(13) 0.1941(12)
C30 C 0.5099(19) 0.1227(17) 0.1861(16)
C31 C 0.5281(26) 0.1383(22) 0.1002(21)
C32 C 0.0937(18) 0.1547(16) 0.2110(14)
C33 C 0.1009(21) 0.2167(25) 0.1470(21)
C34 C -0.0006(31) 0.1993(30) 0.0734(22)
C35 C -0.0042(43) 0.2743(35) 0.0201(31)
C36 C -0.0167(24) 0.8653(20) 0.4329(18)
C37 C 0.0519(30) 0.8112(26) 0.4691(23)
C38 C 0.0844(34) 0.8595(29) 0.5722(27)
C39 C 0.1284(47) 0.8260(39) 0.6174(38)
C40 C -0.0668(32) 0.6664(23) 0.1919(26)
C41 C 0.0135(32) 0.6327(25) 0.2629(21)
C42 C 0.0351(48) 0.5350(25) 0.2292(30)
C43 C 0.0496(42) 0.5284(28) 0.1383(26)
C44 C -0.1735(26) 0.8932(21) 0.2451(18)
C45 C -0.1720(33) 0.9034(25) 0.1538(20)
C46 C -0.2434(32) 0.9776(27) 0.1268(21)
C47 C -0.2309(51) 0.9965(42) 0.0406(29)
H1 H 0.5600(16) 0.6158(14) 0.4849(13)
H2 H 0.4422(16) 0.5775(14) 0.4660(13)
H3 H 0.5097(40) 0.7254(33) 0.4167(34)
H4 H 0.4664(40) 0.7248(33) 0.4972(34)
H5 H 0.3721(39) 0.6980(33) 0.3423(33)
H6 H 0.3216(39) 0.6617(33) 0.4084(33)
H7 H 0.2649(38) 0.7972(32) 0.3835(32)
H8 H 0.3805(38) 0.8431(32) 0.4128(32)
H9 H 0.3300(38) 0.8069(32) 0.4789(2)
H10 H 0.5787(16) 0.3597(14) 0.3381(13)
H11 H 0.6701(16) 0.4324(14) 0.3921(13)
H12 H 0.6045(30) 0.3979(25) 0.2116(20)
H13 H 0.6900(30) 0.4766(25) 0.2633(20)
H14 H 0.8068(43) 0.3739(45) 0.3117(28)
H15 H 0.7199(43) 0.2928(45) 0.2731(28)
H16 H 0.8330(43) 0.2966(39) 0.1818(27)
H17 H 0.8058(43) 0.3956(39) 0.1729(27)
H18 H 0.7188(43) 0.3145(39) 0.1343(27)
H19 H 0.4448(22) 0.5656(18) 0.1763(15)
H20 H 0.3439(22) 0.5593(18) 0.2102(15)
H21 H 0.3221(32) 0.4047(15) 0.1654(21)
H22 H 0.4320(32) 0.4031(15) 0.1445(21)
H23 H 0.1720(13) 0.1115(11) 0.4339(11)
H24 H 0.2544(13) 0.1965(11) 0.4661(11)
H25 H 0.3020(15) 0.0199(13) 0.4426(12)
H26 H 0.3861(15) 0.1036(13) 0.4705(12)
H27 H 0.3425(18) 0.1395(15) 0.5952(14)
H28 H 0.2596(18) 0.0550(15) 0.5672(14)
H29 H 0.4062(20) 0.0238(18) 0.6663(17)
H30 H 0.4776(20) 0.0425(18) 0.6067(17)
H31 H 0.3947(20) -0.0420(18) 0.5787(17)
H32 H 0.3981(13) 0.0619(12) 0.2817(11)
H33 H 0.4369(13) 0.1633(12) 0.3236(11)
H34 H 0.3460(15) 0.1013(13) 0.1486(12)
H35 H 0.3852(15) 0.2026(13) 0.1905(12)
H36 H 0.5208(19) 0.0608(17) 0.1904(16)
H37 H 0.5600(19) 0.1621(17) 0.2321(16)
H38 H 0.5987(26) 0.1259(22) 0.0987(21)
H39 H 0.5183(26) 0.2003(22) 0.0952(21)
H40 H 0.4791(26) 0.0989(22) 0.0535(21)
H41 H 0.0433(18) 0.1779(16) 0.2408(14)
H42 H 0.0685(18) 0.0948(16) 0.1792(14)
H43 H 0.1090(21) 0.2792(25) 0.1748(21)
H44 H 0.1604(21) 0.2033(25) 0.1244(21)
H45 H -0.0607(31) 0.1992(30) 0.0967(22)
H46 H -0.0007(31) 0.1416(30) 0.0376(22)
H47 H -0.0674(43) 0.2634(35) -0.0258(31)
H48 H 0.0560(43) 0.2744(35) -0.0031(31)
H49 H -0.0040(43) 0.3320(35) 0.0560(31)
H50 H -0.0749(24) 0.8700(20) 0.4585(18)
H51 H 0.0164(24) 0.9248(20) 0.4380(18)
H52 H 0.0205(30) 0.7505(26) 0.4610(23)
H53 H 0.1127(30) 0.8099(26) 0.4467(23)
H54 H 0.0195(34) 0.8663(29) 0.5885(27)
H55 H 0.1186(34) 0.9183(29) 0.5764(27)
H56 H 0.1394(47) 0.8622(39) 0.6735(38)
H57 H 0.1949(47) 0.8194(39) 0.6038(38)
H58 H 0.0958(47) 0.7673(39) 0.6160(38)
H59 H -0.0375(32) 0.6799(23) 0.1471(26)
H60 H -0.1328(32) 0.6305(23) 0.1673(26)
H61 H 0.0799(32) 0.6685(25) 0.2801(21)
H62 H -0.0150(32) 0.6342(25) 0.3115(21)
H63 H -0.0292(48) 0.4975(25) 0.2193(30)
H64 H 0.0902(48) 0.5134(25) 0.2695(30)
H65 H 0.0596(42) 0.4671(28) 0.1156(26)
H66 H 0.1138(42) 0.5660(28) 0.1483(26)
H67 H -0.0055(42) 0.5501(28) 0.0982(26)
H68 H -0.1502(26) 0.9511(21) 0.2819(18)
H69 H -0.2442(26) 0.8757(21) 0.2457(18)
H70 H -0.1010(33) 0.9138(25) 0.1501(20)
H71 H -0.2047(33) 0.8489(25) 0.1146(20)
H72 H -0.2032(32) 1.0333(27) 0.1576(21)
H73 H -0.3091(32) 0.9737(27) 0.1421(21)
H74 H -0.2695(51) 1.0467(42) 0.0261(29)
H75 H -0.2711(51) 0.9408(42) 0.0099(29)
H76 H -0.1652(51) 1.0004(42) 0.0254(29)
H77 H 0.0717(12) 0.3554(11) 0.3444(14)
H78 H 0.1314(12) 0.3264(11) 0.4295(14)
H79 H 0.1060(12) 0.5083(11) 0.4122(13)
H80 H 0.1676(12) 0.4801(11) 0.4971(13)
H81 H 0.2919(14) 0.9641(13) 0.1533(13)
H82 H 0.2080(14) 0.8932(13) 0.0864(13)
H83 H 0.3663(14) 0.8442(13) 0.2136(12)
H84 H 0.2873(14) 0.7761(13) 0.1397(12)
H85 H 0.4464(18) 0.8898(16) 0.1179(16)
H86 H 0.3633(18) 0.8289(16) 0.0412(16)
H87 H 0.4313(16) 0.7007(15) 0.0849(13)
H88 H 0.5186(16) 0.7619(15) 0.0659(13)
H89 H 0.5040(14) 0.7444(12) 0.2311(14)
H90 H 0.5841(14) 0.8165(12) 0.2171(14)
H91 H 0.6967(13) 0.7009(12) 0.1892(12)
H92 H 0.6167(13) 0.6288(12) 0.2032(12)
C4A C -0.0086(12) 0.5456(11) 0.5268(13)
C3A C -0.1101(12) 0.5372(11) 0.5532(13)
C2A C -0.1293(12) 0.6283(11) 0.6052(14)
C1A C -0.2313(12) 0.6256(11) 0.6326(11)
N1A N -0.2765(10) 0.6971(9) 0.6623(9)
N2A N -0.3670(10) 0.6650(10) 0.6741(10)
N3A N -0.3715(10) 0.5758(9) 0.6548(10)
N4A N -0.2907(10) 0.5493(8) 0.6285(9)
H77A H -0.0717(12) 0.6446(11) 0.6556(14)
H78A H -0.1314(12) 0.6736(11) 0.5705(14)
H79A H -0.1060(12) 0.4917(11) 0.5878(13)
H80A H -0.1676(12) 0.5199(11) 0.5029(13)
Sn1A Sn -0.5054(1) 0.4767(1) 0.6699(1)
Sn2A Sn -0.2351(1) 0.8559(1) 0.6950(1)
Sn3_2 Sn 0.9278(1) 0.7945(1) 0.2943(1)
N5_2 N 0.1777(11) -0.0173(9) 0.2637(10)
N6_2 N 0.1061(10) -0.0434(9) 0.3014(10)
N7_2 N 0.0696(11) -0.1267(10) 0.2658(11)
N8_2 N 0.1186(12) -0.1581(10) 0.2059(11)
N9_2 N 0.6487(11) -0.3713(9) 0.3270(11)
N10_2 N 0.7241(11) -0.3609(10) 0.3995(10)
N11_2 N 0.8047(11) -0.3128(10) 0.3954(12)
N12_2 N 0.7810(10) -0.2908(9) 0.3179(11)
C5_2 C 0.1840(12) -0.0892(12) 0.2051(11)
C6_2 C 0.2524(14) -0.0935(13) 0.1437(13)
C7_2 C 0.3271(14) -0.1659(13) 0.1546(12)
C8_2 C 0.4030(18) -0.1664(16) 0.0995(16)
C9_2 C 0.4745(16) -0.2429(15) 0.1038(13)
C10_2 C 0.5464(14) -0.2420(12) 0.1942(14)
C11_2 C 0.6244(13) -0.3132(12) 0.1877(12)
C12_2 C 0.6819(13) -0.3253(11) 0.2760(13)
H81_2 H 0.2919(14) -0.0359(13) 0.1533(13)
H82_2 H 0.2080(14) -0.1068(13) 0.0864(13)
H83_2 H 0.3663(14) -0.1558(13) 0.2136(12)
H84_2 H 0.2873(14) -0.2239(13) 0.1397(12)
H85_2 H 0.4464(18) -0.1102(16) 0.1179(16)
H86_2 H 0.3633(18) -0.1711(16) 0.0412(16)
H87_2 H 0.4313(16) -0.2993(15) 0.0849(13)
H88_2 H 0.5186(16) -0.2381(15) 0.0659(13)
H89_2 H 0.5040(14) -0.2556(12) 0.2311(14)
H90_2 H 0.5841(14) -0.1835(12) 0.2171(14)
H91_2 H 0.6967(13) -0.2991(12) 0.1892(12)
H92_2 H 0.6167(13) -0.3712(12) 0.2032(12)
C13A C -0.4920(16) 0.3912(14) 0.5553(13)
C14A C -0.4602(40) 0.3045(33) 0.5608(34)
C15A C -0.3708(39) 0.2933(33) 0.5988(33)
C16A C -0.3339(38) 0.2036(32) 0.5795(32)
H1A H -0.5600(16) 0.3842(14) 0.5151(13)
H2A H -0.4422(16) 0.4225(14) 0.5340(13)
H3A H -0.5097(40) 0.2746(33) 0.5833(34)
H4A H -0.4664(40) 0.2752(33) 0.5028(34)
H5A H -0.3721(39) 0.3020(33) 0.6577(33)
H6A H -0.3216(39) 0.3383(33) 0.5916(33)
H7A H -0.2649(38) 0.2028(32) 0.6165(32)
H8A H -0.3805(38) 0.1569(32) 0.5872(32)
H9A H -0.3300(38) 0.1931(32) 0.5211(2)
C17A C -0.6147(16) 0.5829(14) 0.6598(13)
C18A C -0.6605(30) 0.5829(25) 0.7374(20)
C19A C -0.7464(43) 0.6498(45) 0.7347(28)
C20A C -0.7793(43) 0.6619(39) 0.8193(27)
H10A H -0.5787(16) 0.6403(14) 0.6619(13)
H11A H -0.6701(16) 0.5676(14) 0.6079(13)
H12A H -0.6045(30) 0.6021(25) 0.7884(20)
H13A H -0.6900(30) 0.5234(25) 0.7367(20)
H14A H -0.8068(43) 0.6261(45) 0.6883(28)
H15A H -0.7199(43) 0.7072(45) 0.7269(28)
H16A H -0.8330(43) 0.7034(39) 0.8182(27)
H17A H -0.8058(43) 0.6044(39) 0.8271(27)
H18A H -0.7188(43) 0.6855(39) 0.8657(27)
C21A C -0.4058(22) 0.4698(18) 0.7966(15)
C22A C -0.3715(32) 0.5631(15) 0.8556(21)
C23A C -0.3176(40) 0.5496(29) 0.9466(18)
H19A H -0.4448(22) 0.4344(18) 0.8237(15)
H20A H -0.3439(22) 0.4407(18) 0.7898(15)
H21A H -0.3221(32) 0.5953(15) 0.8346(21)
H22A H -0.4320(32) 0.5969(15) 0.8555(21)
C24A C -0.2401(13) 0.8640(11) 0.5670(11)
C25A C -0.3185(15) 0.9191(13) 0.5257(12)
C26A C -0.3270(18) 0.9217(15) 0.4362(14)
C27A C -0.4088(20) 0.9800(18) 0.3920(17)
H23A H -0.1720(13) 0.8885(11) 0.5661(11)
H24A H -0.2544(13) 0.8035(11) 0.5339(11)
H25A H -0.3020(15) 0.9801(13) 0.5574(12)
H26A H -0.3861(15) 0.8964(13) 0.5295(12)
H27A H -0.3425(18) 0.8605(15) 0.4048(14)
H28A H -0.2596(18) 0.9450(15) 0.4328(14)
H29A H -0.4062(20) 0.9762(18) 0.3337(17)
H30A H -0.4776(20) 0.9575(18) 0.3933(17)
H31A H -0.3947(20) 1.0420(18) 0.4213(17)
C28A C -0.3848(13) 0.8762(12) 0.7208(11)
C29A C -0.3967(15) 0.8594(13) 0.8059(12)
C30A C -0.5099(19) 0.8773(17) 0.8139(16)
C31A C -0.5281(26) 0.8617(22) 0.8998(21)
H32A H -0.3981(13) 0.9381(12) 0.7183(11)
H33A H -0.4369(13) 0.8367(12) 0.6764(11)
H34A H -0.3460(15) 0.8987(13) 0.8514(12)
H35A H -0.3852(15) 0.7974(13) 0.8095(12)
H36A H -0.5208(19) 0.9392(17) 0.8096(16)
H37A H -0.5600(19) 0.8379(17) 0.7679(16)
H38A H -0.5987(26) 0.8741(22) 0.9013(21)
H39A H -0.5183(26) 0.7997(22) 0.9048(21)
H40A H -0.4791(26) 0.9011(22) 0.9465(21)
C32A C -0.0937(18) 0.8453(16) 0.7890(14)
C33A C -0.1009(21) 0.7833(25) 0.8530(21)
C34A C 0.0006(31) 0.8007(30) 0.9266(22)
C35A C 0.0042(43) 0.7257(35) 0.9799(31)
H41A H -0.0433(18) 0.8221(16) 0.7592(14)
H42A H -0.0685(18) 0.9052(16) 0.8208(14)
H43A H -0.1090(21) 0.7208(25) 0.8252(21)
H44A H -0.1604(21) 0.7967(25) 0.8756(21)
H45A H 0.0607(31) 0.8008(30) 0.9033(22)
H46A H 0.0007(31) 0.8584(30) 0.9624(22)
H47A H 0.0674(43) 0.7366(35) 1.0258(31)
H48A H -0.0560(43) 0.7256(35) 1.0031(31)
H49A H 0.0040(43) 0.6680(35) 0.9440(31)
C36_2 C 0.9833(24) 0.8653(20) 0.4329(18)
C37_2 C 1.0519(30) 0.8112(26) 0.4691(23)
C38_2 C 1.0844(34) 0.8595(29) 0.5722(27)
C39_2 C 1.1284(47) 0.8260(39) 0.6174(38)
H50_2 H 0.9251(24) 0.8700(20) 0.4585(18)
H51_2 H 1.0164(24) 0.9248(20) 0.4380(18)
H52_2 H 1.0205(30) 0.7505(26) 0.4610(23)
H53_2 H 1.1127(30) 0.8099(26) 0.4467(23)
H54_2 H 1.0195(34) 0.8663(29) 0.5885(27)
H55_2 H 1.1186(34) 0.9183(29) 0.5764(27)
H56_2 H 1.1394(47) 0.8622(39) 0.6735(38)
H57_2 H 1.1949(47) 0.8194(39) 0.6038(38)
H58_2 H 1.0958(47) 0.7673(39) 0.6160(38)
C40_2 C 0.9332(32) 0.6664(23) 0.1919(26)
C41_2 C 1.0135(32) 0.6327(25) 0.2629(21)
C42_2 C 1.0351(48) 0.5350(25) 0.2292(30)
C43_2 C 1.0496(42) 0.5284(28) 0.1383(26)
H59_2 H 0.9625(32) 0.6799(23) 0.1471(26)
H60_2 H 0.8672(32) 0.6305(23) 0.1673(26)
H61_2 H 1.0799(32) 0.6685(25) 0.2801(21)
H62_2 H 0.9850(32) 0.6342(25) 0.3115(21)
H63_2 H 0.9708(48) 0.4975(25) 0.2193(30)
H64_2 H 1.0902(48) 0.5134(25) 0.2695(30)
H65_2 H 1.0596(42) 0.4671(28) 0.1156(26)
H66_2 H 1.1138(42) 0.5660(28) 0.1483(26)
H67_2 H 0.9945(42) 0.5501(28) 0.0982(26)
C44_2 C 0.8265(26) 0.8932(21) 0.2451(18)
C45_2 C 0.8280(33) 0.9034(25) 0.1538(20)
C46_2 C 0.7566(32) 0.9776(27) 0.1268(21)
C47_2 C 0.7691(51) 0.9965(42) 0.0406(29)
H68_2 H 0.8498(26) 0.9511(21) 0.2819(18)
H69_2 H 0.7558(26) 0.8757(21) 0.2457(18)
H70_2 H 0.8990(33) 0.9138(25) 0.1501(20)
H71_2 H 0.7953(33) 0.8489(25) 0.1146(20)
H72_2 H 0.7968(32) 1.0333(27) 0.1576(21)
H73_2 H 0.6909(32) 0.9737(27) 0.1421(21)
H74_2 H 0.7305(51) 1.0467(42) 0.0261(29)
H75_2 H 0.7289(51) 0.9408(42) 0.0099(29)
H76_2 H 0.8348(51) 1.0004(42) 0.0254(29)
N12_3 N -0.2190(10) 0.7092(9) 0.3179(11)
Sn2_2 Sn 0.2351(1) 1.1441(1) 0.3050(1)
N9A N -0.6487(11) 0.3713(9) 0.6730(11)
N5A N -0.1777(11) 1.0173(9) 0.7363(10)
N7_3 N 1.0696(11) 0.8733(10) 0.2658(11)
Sn3_3 Sn -0.0722(1) -0.2055(1) 0.2943(1)
Sn1_2 Sn 0.5054(1) -0.4767(1) 0.3301(1)
Sn3_4 Sn 0.9278(1) -0.2055(1) 0.2943(1)
loop_
_geom_bond_atom_site_label_1
_geom_bond_atom_site_label_2
_geom_bond_site_symmetry_1
_geom_bond_site_symmetry_2
Sn1 N3 1_555 1_555
Sn2 N1 1_555 1_555
Sn3 N7 1_555 1_555
N1 N2 1_555 1_555
N2 N3 1_555 1_555
N3 N4 1_555 1_555
N4 C1 1_555 1_555
N5 N6 1_555 1_555
N6 N7 1_555 1_555
N7 N8 1_555 1_555
N8 C5 1_555 1_555
N9 Sn1 1_555 1_555
N10 N9 1_555 1_555
N11 N10 1_555 1_555
N12 N11 1_555 1_555
C1 N1 1_555 1_555
C2 C1 1_555 1_555
C3 C2 1_555 1_555
C4 C3 1_555 1_555
C5 N5 1_555 1_555
C6 C5 1_555 1_555
C7 C6 1_555 1_555
C8 C7 1_555 1_555
C9 C8 1_555 1_555
C10 C9 1_555 1_555
C11 C10 1_555 1_555
C12 N9 1_555 1_555
C13 Sn1 1_555 1_555
C14 C13 1_555 1_555
C15 C14 1_555 1_555
C16 C15 1_555 1_555
C17 Sn1 1_555 1_555
C18 C17 1_555 1_555
C19 C18 1_555 1_555
C20 C19 1_555 1_555
C21 Sn1 1_555 1_555
C22 C21 1_555 1_555
C23 C22 1_555 1_555
C24 Sn2 1_555 1_555
C25 C24 1_555 1_555
C26 C25 1_555 1_555
C27 C26 1_555 1_555
C28 Sn2 1_555 1_555
C29 C28 1_555 1_555
C30 C29 1_555 1_555
C31 C30 1_555 1_555
C32 Sn2 1_555 1_555
C33 C32 1_555 1_555
C34 C33 1_555 1_555
C35 C34 1_555 1_555
C36 Sn3 1_555 1_555
C37 C36 1_555 1_555
C38 C37 1_555 1_555
C39 C38 1_555 1_555
C40 Sn3 1_555 1_555
C41 C40 1_555 1_555
C42 C41 1_555 1_555
C43 C42 1_555 1_555
C44 Sn3 1_555 1_555
C45 C44 1_555 1_555
C46 C45 1_555 1_555
C47 C46 1_555 1_555
H1 C13 1_555 1_555
H2 C13 1_555 1_555
H3 C14 1_555 1_555
H4 C14 1_555 1_555
H5 C15 1_555 1_555
H6 C15 1_555 1_555
H7 C16 1_555 1_555
H8 C16 1_555 1_555
H9 C16 1_555 1_555
H10 C17 1_555 1_555
H11 C17 1_555 1_555
H12 C18 1_555 1_555
H13 C18 1_555 1_555
H14 C19 1_555 1_555
H15 C19 1_555 1_555
H16 C20 1_555 1_555
H17 C20 1_555 1_555
H18 C20 1_555 1_555
H19 C21 1_555 1_555
H20 C21 1_555 1_555
H21 C22 1_555 1_555
H22 C22 1_555 1_555
H23 C24 1_555 1_555
H24 C24 1_555 1_555
H25 C25 1_555 1_555
H26 C25 1_555 1_555
H27 C26 1_555 1_555
H28 C26 1_555 1_555
H29 C27 1_555 1_555
H30 C27 1_555 1_555
H31 C27 1_555 1_555
H32 C28 1_555 1_555
H33 C28 1_555 1_555
H34 C29 1_555 1_555
H35 C29 1_555 1_555
H36 C30 1_555 1_555
H37 C30 1_555 1_555
H38 C31 1_555 1_555
H39 C31 1_555 1_555
H40 C31 1_555 1_555
H41 C32 1_555 1_555
H42 C32 1_555 1_555
H43 C33 1_555 1_555
H44 C33 1_555 1_555
H45 C34 1_555 1_555
H46 C34 1_555 1_555
H47 C35 1_555 1_555
H48 C35 1_555 1_555
H49 C35 1_555 1_555
H50 C36 1_555 1_555
H51 C36 1_555 1_555
H52 C37 1_555 1_555
H53 C37 1_555 1_555
H54 C38 1_555 1_555
H55 C38 1_555 1_555
H56 C39 1_555 1_555
H57 C39 1_555 1_555
H58 C39 1_555 1_555
H59 C40 1_555 1_555
H60 C40 1_555 1_555
H61 C41 1_555 1_555
H62 C41 1_555 1_555
H63 C42 1_555 1_555
H64 C42 1_555 1_555
H65 C43 1_555 1_555
H66 C43 1_555 1_555
H67 C43 1_555 1_555
H68 C44 1_555 1_555
H69 C44 1_555 1_555
H70 C45 1_555 1_555
H71 C45 1_555 1_555
H72 C46 1_555 1_555
H73 C46 1_555 1_555
H74 C47 1_555 1_555
H75 C47 1_555 1_555
H76 C47 1_555 1_555
H77 C2 1_555 1_555
H78 C2 1_555 1_555
H79 C3 1_555 1_555
H80 C3 1_555 1_555
H81 C6 1_555 1_555
H82 C6 1_555 1_555
H83 C7 1_555 1_555
H84 C7 1_555 1_555
H85 C8 1_555 1_555
H86 C8 1_555 1_555
H87 C9 1_555 1_555
H88 C9 1_555 1_555
H89 C10 1_555 1_555
H90 C10 1_555 1_555
H91 C11 1_555 1_555
H92 C11 1_555 1_555
C4A C4 1_555 1_555
C3A C4A 1_555 1_555
C2A C3A 1_555 1_555
C1A C2A 1_555 1_555
N1A C1A 1_555 1_555
N2A N1A 1_555 1_555
N3A N2A 1_555 1_555
N4A C1A 1_555 1_555
H77A C2A 1_555 1_555
H78A C2A 1_555 1_555
H79A C3A 1_555 1_555
H80A C3A 1_555 1_555
Sn1A N3A 1_555 1_555
Sn2A N1A 1_555 1_555
Sn3_2 N12 1_555 1_555
N5_2 Sn2 1_555 1_555
N6_2 N5_2 1_555 1_555
N7_2 N6_2 1_555 1_555
N8_2 N7_2 1_555 1_555
N9_2 N10_2 1_555 1_555
N10_2 N11_2 1_555 1_555
N11_2 N12_2 1_555 1_555
N12_2 C12_2 1_555 1_555
C5_2 N5_2 1_555 1_555
C6_2 C5_2 1_555 1_555
C7_2 C6_2 1_555 1_555
C8_2 C7_2 1_555 1_555
C9_2 C8_2 1_555 1_555
C10_2 C9_2 1_555 1_555
C11_2 C10_2 1_555 1_555
C12_2 N9_2 1_555 1_555
H81_2 C6_2 1_555 1_555
H82_2 C6_2 1_555 1_555
H83_2 C7_2 1_555 1_555
H84_2 C7_2 1_555 1_555
H85_2 C8_2 1_555 1_555
H86_2 C8_2 1_555 1_555
H87_2 C9_2 1_555 1_555
H88_2 C9_2 1_555 1_555
H89_2 C10_2 1_555 1_555
H90_2 C10_2 1_555 1_555
H91_2 C11_2 1_555 1_555
H92_2 C11_2 1_555 1_555
C13A Sn1A 1_555 1_555
C14A C13A 1_555 1_555
C15A C14A 1_555 1_555
C16A C15A 1_555 1_555
H1A C13A 1_555 1_555
H2A C13A 1_555 1_555
H3A C14A 1_555 1_555
H4A C14A 1_555 1_555
H5A C15A 1_555 1_555
H6A C15A 1_555 1_555
H7A C16A 1_555 1_555
H8A C16A 1_555 1_555
H9A C16A 1_555 1_555
C17A Sn1A 1_555 1_555
C18A C17A 1_555 1_555
C19A C18A 1_555 1_555
C20A C19A 1_555 1_555
H10A C17A 1_555 1_555
H11A C17A 1_555 1_555
H12A C18A 1_555 1_555
H13A C18A 1_555 1_555
H14A C19A 1_555 1_555
H15A C19A 1_555 1_555
H16A C20A 1_555 1_555
H17A C20A 1_555 1_555
H18A C20A 1_555 1_555
C21A Sn1A 1_555 1_555
C22A C21A 1_555 1_555
C23A C22A 1_555 1_555
H19A C21A 1_555 1_555
H20A C21A 1_555 1_555
H21A C22A 1_555 1_555
H22A C22A 1_555 1_555
C24A Sn2A 1_555 1_555
C25A C24A 1_555 1_555
C26A C25A 1_555 1_555
C27A C26A 1_555 1_555
H23A C24A 1_555 1_555
H24A C24A 1_555 1_555
H25A C25A 1_555 1_555
H26A C25A 1_555 1_555
H27A C26A 1_555 1_555
H28A C26A 1_555 1_555
H29A C27A 1_555 1_555
H30A C27A 1_555 1_555
H31A C27A 1_555 1_555
C28A Sn2A 1_555 1_555
C29A C28A 1_555 1_555
C30A C29A 1_555 1_555
C31A C30A 1_555 1_555
H32A C28A 1_555 1_555
H33A C28A 1_555 1_555
H34A C29A 1_555 1_555
H35A C29A 1_555 1_555
H36A C30A 1_555 1_555
H37A C30A 1_555 1_555
H38A C31A 1_555 1_555
H39A C31A 1_555 1_555
H40A C31A 1_555 1_555
C32A Sn2A 1_555 1_555
C33A C32A 1_555 1_555
C34A C33A 1_555 1_555
C35A C34A 1_555 1_555
H41A C32A 1_555 1_555
H42A C32A 1_555 1_555
H43A C33A 1_555 1_555
H44A C33A 1_555 1_555
H45A C34A 1_555 1_555
H46A C34A 1_555 1_555
H47A C35A 1_555 1_555
H48A C35A 1_555 1_555
H49A C35A 1_555 1_555
C36_2 Sn3_2 1_555 1_555
C37_2 C36_2 1_555 1_555
C38_2 C37_2 1_555 1_555
C39_2 C38_2 1_555 1_555
H50_2 C36_2 1_555 1_555
H51_2 C36_2 1_555 1_555
H52_2 C37_2 1_555 1_555
H53_2 C37_2 1_555 1_555
H54_2 C38_2 1_555 1_555
H55_2 C38_2 1_555 1_555
H56_2 C39_2 1_555 1_555
H57_2 C39_2 1_555 1_555
H58_2 C39_2 1_555 1_555
C40_2 Sn3_2 1_555 1_555
C41_2 C40_2 1_555 1_555
C42_2 C41_2 1_555 1_555
C43_2 C42_2 1_555 1_555
H59_2 C40_2 1_555 1_555
H60_2 C40_2 1_555 1_555
H61_2 C41_2 1_555 1_555
H62_2 C41_2 1_555 1_555
H63_2 C42_2 1_555 1_555
H64_2 C42_2 1_555 1_555
H65_2 C43_2 1_555 1_555
H66_2 C43_2 1_555 1_555
H67_2 C43_2 1_555 1_555
C44_2 Sn3_2 1_555 1_555
C45_2 C44_2 1_555 1_555
C46_2 C45_2 1_555 1_555
C47_2 C46_2 1_555 1_555
H68_2 C44_2 1_555 1_555
H69_2 C44_2 1_555 1_555
H70_2 C45_2 1_555 1_555
H71_2 C45_2 1_555 1_555
H72_2 C46_2 1_555 1_555
H73_2 C46_2 1_555 1_555
H74_2 C47_2 1_555 1_555
H75_2 C47_2 1_555 1_555
H76_2 C47_2 1_555 1_555
N12_3 Sn3 1_555 1_555
Sn2_2 N5 1_555 1_555
N9A Sn1A 1_555 1_555
N5A Sn2A 1_555 1_555
N7_3 Sn3_2 1_555 1_555
Sn3_3 N7_2 1_555 1_555
Sn1_2 N9_2 1_555 1_555
Sn3_4 N12_2 1_555 1_555
N12 C12 1_555 1_555
C11 C12 1_555 1_555
N3A N4A 1_555 1_555
N8_2 C5_2 1_555 1_555
C11_2 C12_2 1_555 1_555

#END
