
#######################################################################
#
#                 Cambridge Crystallographic Data Centre
#                                CCDC 
#
#######################################################################
#
# If this CIF has been generated from an entry in the Cambridge 
# Structural Database, then it will include bibliographic, chemical, 
# crystal, experimental, refinement or atomic coordinate data resulting 
# from the CCDC's data processing and validation procedures.
#
#######################################################################

data_ZUNXUB
_symmetry_cell_setting           monoclinic
_symmetry_space_group_name_H-M   'P 21/c'
_symmetry_Int_Tables_number      14
_space_group_name_Hall           '-P 2ybc'
loop_
_symmetry_equiv_pos_site_id
_symmetry_equiv_pos_as_xyz
1 x,y,z
2 -x,1/2+y,1/2-z
3 -x,-y,-z
4 x,1/2-y,1/2+z
_cell_length_a                   8.853(2)
_cell_length_b                   30.303(7)
_cell_length_c                   9.557(9)
_cell_angle_alpha                90
_cell_angle_beta                 92.29(7)
_cell_angle_gamma                90
_cell_volume                     2561.83
loop_
_atom_site_label
_atom_site_type_symbol
_atom_site_fract_x
_atom_site_fract_y
_atom_site_fract_z
Pb1 Pb 0.35097(4) 0.16263(1) -0.25446(4)
N1 N 0.1714(10) 0.0954(3) -0.2879(9)
N2 N 0.1221(11) 0.1789(3) -0.4364(11)
N3 N 0.3718(10) 0.1258(3) -0.5127(9)
N4 N 0.3570(10) 0.1111(3) -0.0385(10)
N5 N 0.2819(10) 0.0728(3) -0.0633(9)
N6 N 0.1177(11) 0.1902(4) -0.1355(12)
N7 N 0.0043(12) 0.2047(4) -0.2270(14)
N8 N 0.6017(11) 0.1050(3) -0.2929(10)
N9 N 0.6019(10) 0.0932(3) -0.4285(9)
C1 C 0.0196(13) 0.1066(4) -0.3498(14)
C2 C 0.0152(16) 0.1411(5) -0.4588(18)
C3 C 0.1974(16) 0.1909(5) -0.5637(13)
C4 C 0.3046(15) 0.1575(4) -0.6152(12)
C5 C 0.2925(13) 0.0823(4) -0.5193(11)
C6 C 0.2542(12) 0.0639(4) -0.3756(11)
C7 C 0.1459(13) 0.0747(4) -0.1491(11)
C8 C 0.3339(16) 0.0394(4) 0.0166(12)
C9 C 0.4539(17) 0.0561(4) 0.0967(13)
C10 C 0.4627(14) 0.1002(4) 0.0580(11)
C11 C 0.0428(17) 0.2139(6) -0.3738(16)
C12 C -0.1375(16) 0.2033(5) -0.1667(23)
C13 C -0.1143(19) 0.1862(7) -0.0314(21)
C14 C 0.0441(17) 0.1779(5) -0.0225(17)
C15 C 0.5331(12) 0.1216(4) -0.5333(11)
C16 C 0.6652(13) 0.0518(4) -0.4430(14)
C17 C 0.7046(14) 0.0371(5) -0.3160(16)
C18 C 0.6660(13) 0.0709(5) -0.2229(13)
Cl1 Cl 0.5194(3) 0.26785(10) -0.3915(3)
O1 O 0.5860(12) 0.2242(3) -0.4066(11)
O2 O 0.3701(10) 0.2627(3) -0.3355(11)
O3 O 0.5080(13) 0.2116(4) -0.0249(10)
O4 O 0.6111(1) 0.2945(3) -0.2991(10)
H1 H -0.0419(13) 0.1164(4) -0.2753(14)
H2 H -0.0230(13) 0.0802(4) -0.3906(14)
H3 H 0.0377(16) 0.1274(5) -0.5461(18)
H4 H -0.0855(16) 0.1530(5) -0.4649(18)
H5 H 0.1211(16) 0.1959(5) -0.6361(13)
H6 H 0.2526(16) 0.2177(5) -0.5458(13)
H7 H 0.3864(15) 0.1731(4) -0.6556(12)
H8 H 0.2516(15) 0.1406(4) -0.6865(12)
H9 H 0.2000(13) 0.0857(4) -0.5742(11)
H10 H 0.3564(13) 0.0614(4) -0.5640(11)
H11 H 0.3469(12) 0.0560(4) -0.3264(11)
H12 H 0.1929(12) 0.0380(4) -0.3898(11)
H13 H 0.1085(13) 0.0453(4) -0.1638(11)
H14 H 0.0722(13) 0.0918(4) -0.1018(11)
H15 H 0.2955(16) 0.0098(4) 0.0178(12)
H16 H 0.5172(17) 0.0407(4) 0.1643(13)
H17 H 0.5365(14) 0.1205(4) 0.0966(11)
H18 H 0.1045(17) 0.2399(6) -0.3750(16)
H19 H -0.0493(17) 0.2190(6) -0.4279(16)
H20 H -0.2323(16) 0.2124(5) -0.2098(23)
H21 H -0.1874(19) 0.1812(7) 0.0384(21)
H22 H 0.0939(17) 0.1646(5) 0.0579(17)
H23 H 0.5792(12) 0.1503(4) -0.5269(11)
H24 H 0.5482(12) 0.1094(4) -0.6243(11)
H25 H 0.6784(13) 0.0365(4) -0.5295(14)
H26 H 0.7499(14) 0.0092(5) -0.2924(16)
H27 H 0.6831(13) 0.0698(5) -0.1232(13)
O3C O 0.5080(13) 0.2884(4) -0.5249(10)
Pb1C Pb 0.35097(4) 0.33737(1) -0.75446(4)
Cl2 Cl -0.0853(4) 0.0644(1) 0.2050(3)
O5 O 0.0368(16) 0.0919(5) 0.1905(13)
O6 O -0.0427(21) 0.0347(5) 0.3106(18)
O7 O -0.1167(16) 0.0468(5) 0.0718(13)
O8 O -0.2062(20) 0.0869(9) 0.2450(18)
loop_
_geom_bond_atom_site_label_1
_geom_bond_atom_site_label_2
_geom_bond_site_symmetry_1
_geom_bond_site_symmetry_2
Pb1 N1 1_555 1_555
N1 C1 1_555 1_555
N2 Pb1 1_555 1_555
N3 Pb1 1_555 1_555
N4 Pb1 1_555 1_555
N5 N4 1_555 1_555
N6 Pb1 1_555 1_555
N7 N6 1_555 1_555
N8 Pb1 1_555 1_555
N9 N8 1_555 1_555
C1 C2 1_555 1_555
C2 N2 1_555 1_555
C3 N2 1_555 1_555
C4 N3 1_555 1_555
C5 N3 1_555 1_555
C6 N1 1_555 1_555
C7 N1 1_555 1_555
C8 N5 1_555 1_555
C9 C8 1_555 1_555
C10 N4 1_555 1_555
C11 N2 1_555 1_555
C12 N7 1_555 1_555
C13 C12 1_555 1_555
C14 N6 1_555 1_555
C15 N3 1_555 1_555
C16 N9 1_555 1_555
C17 C16 1_555 1_555
C18 N8 1_555 1_555
Cl1 O1 1_555 1_555
O1 Pb1 1_555 1_555
O2 Pb1 1_555 1_555
O3 Pb1 1_555 1_555
O4 Cl1 1_555 1_555
Cl2 O5 1_555 1_555
O6 Cl2 1_555 1_555
O7 Cl2 1_555 1_555
O8 Cl2 1_555 1_555
H1 C1 1_555 1_555
H2 C1 1_555 1_555
H3 C2 1_555 1_555
H4 C2 1_555 1_555
H5 C3 1_555 1_555
H6 C3 1_555 1_555
H7 C4 1_555 1_555
H8 C4 1_555 1_555
H9 C5 1_555 1_555
H10 C5 1_555 1_555
H11 C6 1_555 1_555
H12 C6 1_555 1_555
H13 C7 1_555 1_555
H14 C7 1_555 1_555
H15 C8 1_555 1_555
H16 C9 1_555 1_555
H17 C10 1_555 1_555
H18 C11 1_555 1_555
H19 C11 1_555 1_555
H20 C12 1_555 1_555
H21 C13 1_555 1_555
H22 C14 1_555 1_555
H23 C15 1_555 1_555
H24 C15 1_555 1_555
H25 C16 1_555 1_555
H26 C17 1_555 1_555
H27 C18 1_555 1_555
O3C Cl1 1_555 1_555
Pb1C O3C 1_555 1_555
N5 C7 1_555 1_555
N7 C11 1_555 1_555
N9 C15 1_555 1_555
C3 C4 1_555 1_555
C5 C6 1_555 1_555
C9 C10 1_555 1_555
C13 C14 1_555 1_555
C17 C18 1_555 1_555
Cl1 O2 1_555 1_555

#END
