
#######################################################################
#
#                 Cambridge Crystallographic Data Centre
#                                CCDC 
#
#######################################################################
#
# If this CIF has been generated from an entry in the Cambridge 
# Structural Database, then it will include bibliographic, chemical, 
# crystal, experimental, refinement or atomic coordinate data resulting 
# from the CCDC's data processing and validation procedures.
#
#######################################################################

data_ZUNZIT
_symmetry_cell_setting           triclinic
_symmetry_space_group_name_H-M   'P -1'
_symmetry_Int_Tables_number      2
_space_group_name_Hall           '-P 1'
loop_
_symmetry_equiv_pos_site_id
_symmetry_equiv_pos_as_xyz
1 x,y,z
2 -x,-y,-z
_cell_length_a                   9.6128(19)
_cell_length_b                   11.336(2)
_cell_length_c                   11.906(2)
_cell_angle_alpha                114.52(3)
_cell_angle_beta                 91.19(3)
_cell_angle_gamma                106.00(3)
_cell_volume                     1121.04
loop_
_atom_site_label
_atom_site_type_symbol
_atom_site_fract_x
_atom_site_fract_y
_atom_site_fract_z
C1 C 0.9832(5) 0.8976(6) 0.1076(5)
N1 N 0.8691(5) 1.5557(6) -0.0610(6)
C2 C 0.5715(6) 1.2341(6) -0.0067(6)
C3 C 0.8236(6) 1.3714(6) -0.0030(6)
H1 H 0.8607 1.3174 0.0226
C4 C 0.6742(6) 1.3440(6) -0.0279(6)
C5 C 1.2569(6) 0.8544(7) 0.5611(5)
H2 H 1.1810 0.8680 0.6072
C6 C 0.6255(6) 1.4237(6) -0.0706(6)
H3 H 0.5256 1.4086 -0.0879
C7 C 0.8657(7) 0.7462(7) -0.2142(6)
H4 H 0.9586 0.8013 -0.1616
C8 C 1.1075(6) 0.8585(7) 0.2715(5)
H5 H 1.1939 0.8747 0.2387
C9 C 0.9183(6) 1.4809(6) -0.0167(6)
C10 C 0.9824(6) 0.8615(7) 0.2169(5)
C11 C 1.4147(7) 0.8944(7) 0.7536(6)
C12 C 1.3883(6) 0.8588(7) 0.6166(6)
C13 C 1.2400(7) 0.8299(8) 0.4371(6)
N2 N 1.3468(7) 0.8105(8) 0.3676(5)
C14 C 1.4965(7) 0.8343(9) 0.5436(6)
H6 H 1.5854 0.8348 0.5764
C15 C 1.0119(10) 0.6027(11) -0.3230(8)
H7 H 0.9882 0.5162 -0.3199
H8 H 1.0888 0.6687 -0.2556
H9 H 1.0439 0.5935 -0.4012
C16 C 0.7678(14) 0.5755(14) -0.4187(11)
H10 H 0.6942 0.6205 -0.4052
H11 H 0.7245 0.4834 -0.4302
H12 H 0.8085 0.5748 -0.4918
C17 C 0.8547(6) 0.8312(9) 0.2642(7)
H13 H 0.7675 0.8328 0.2303
N3 N 0.9821(6) 0.7999(10) 0.4213(6)
C18 C 1.1068(7) 0.8318(8) 0.3752(6)
C19 C 1.4679(8) 0.8092(11) 0.4204(7)
H14 H 1.5396 0.7899 0.3708
C20 C 0.8598(8) 0.7984(15) 0.3635(10)
H15 H 0.7723 0.7735 0.3922
C21 C 0.7252(7) 1.5253(7) -0.0875(7)
H16 H 0.6901 1.5758 -0.1192
N4 N 0.8828(6) 0.6479(7) -0.3112(5)
O1 O 0.8723(4) 0.9127(5) 0.0717(4)
O2 O 0.7592(5) 0.7852(5) -0.1976(4)
O3 O 1.1022(4) 0.9123(5) 0.0631(4)
O4 O 1.5310(5) 0.8823(6) 0.7909(4)
O5 O 0.6104(5) 1.1401(5) -0.0031(4)
O6 O 1.3202(5) 0.9319(6) 0.8173(4)
O7 O 0.4423(4) 1.2382(5) 0.0050(5)
Tb1 Tb 0.6933 0.9552 -0.029
N1A N 1.1309(5) 1.4443(6) 0.0610(6)
C2A C 1.4285(6) 1.7659(6) 0.0067(6)
C3A C 1.1764(6) 1.6286(6) 0.0030(6)
H1A H 1.1393 1.6826 -0.0226
C4A C 1.3258(6) 1.6560(6) 0.0279(6)
C6A C 1.3745(6) 1.5763(6) 0.0706(6)
H3A H 1.4744 1.5914 0.0879
C9A C 1.0817(6) 1.5191(6) 0.0167(6)
C21A C 1.2748(7) 1.4747(7) 0.0875(7)
H16A H 1.3099 1.4242 0.1192
O5A O 1.3896(5) 1.8599(5) 0.0031(4)
O7A O 1.5577(4) 1.7618(5) -0.0050(5)
C1A C 0.0168(5) 1.1024(6) -0.1076(5)
C5A C -0.2569(6) 1.1456(7) -0.5611(5)
H2A H -0.1810 1.1320 -0.6072
C7A C 0.1343(7) 1.2538(7) 0.2142(6)
H4A H 0.0414 1.1987 0.1616
C8A C -0.1075(6) 1.1415(7) -0.2715(5)
H5A H -0.1939 1.1253 -0.2387
C10A C 0.0176(6) 1.1385(7) -0.2169(5)
C11A C -0.4147(7) 1.1056(7) -0.7536(6)
C12A C -0.3883(6) 1.1412(7) -0.6166(6)
C13A C -0.2400(7) 1.1701(8) -0.4371(6)
N2A N -0.3468(7) 1.1895(8) -0.3676(5)
C14A C -0.4965(7) 1.1657(9) -0.5436(6)
H6A H -0.5854 1.1652 -0.5764
C15A C -0.0119(10) 1.3973(11) 0.3230(8)
H7A H 0.0118 1.4838 0.3199
H8A H -0.0888 1.3313 0.2556
H9A H -0.0439 1.4065 0.4012
C16A C 0.2322(14) 1.4245(14) 0.4187(11)
H10A H 0.3058 1.3795 0.4052
H11A H 0.2755 1.5166 0.4302
H12A H 0.1915 1.4252 0.4918
C17A C 0.1453(6) 1.1688(9) -0.2642(7)
H13A H 0.2325 1.1672 -0.2303
N3A N 0.0179(6) 1.2001(10) -0.4213(6)
C18A C -0.1068(7) 1.1682(8) -0.3752(6)
C19A C -0.4679(8) 1.1908(11) -0.4204(7)
H14A H -0.5396 1.2101 -0.3708
C20A C 0.1402(8) 1.2016(15) -0.3635(10)
H15A H 0.2277 1.2265 -0.3922
N4A N 0.1172(6) 1.3521(7) 0.3112(5)
O1A O 0.1277(4) 1.0873(5) -0.0717(4)
O2A O 0.2408(5) 1.2148(5) 0.1976(4)
O3A O -0.1022(4) 1.0877(5) -0.0631(4)
O4A O -0.5310(5) 1.1177(6) -0.7909(4)
O6A O -0.3202(5) 1.0681(6) -0.8173(4)
Tb1A Tb 0.3067 1.0448 0.029
O3_2 O 0.1022(4) 0.9123(5) 0.0631(4)
O3A_2 O 0.8978(4) 1.0877(5) -0.0631(4)
O4_2 O 0.5310(5) 0.8823(6) -0.2091(4)
O4A_2 O 0.4690(5) 1.1177(6) 0.2091(4)
O5A_2 O 0.3896(5) 0.8599(5) 0.0031(4)
O6_2 O 0.3202(5) 0.9319(6) -0.1827(4)
O6A_2 O 0.6798(5) 1.0681(6) 0.1827(4)
O7A_2 O 0.5577(4) 0.7618(5) -0.0050(5)
Tb1_2 Tb -0.3067 0.9552 -1.029
Tb1_3 Tb -0.3067 0.9552 -0.029
Tb1_4 Tb 1.6933 0.9552 0.971
Tb1_5 Tb 1.6933 1.9552 -0.029
Tb1A_2 Tb -0.6933 1.0448 -0.971
Tb1A_3 Tb 1.3067 1.0448 0.029
Tb1A_4 Tb 1.3067 1.0448 1.029
Tb1A_5 Tb 1.3067 2.0448 0.029
loop_
_geom_bond_atom_site_label_1
_geom_bond_atom_site_label_2
_geom_bond_site_symmetry_1
_geom_bond_site_symmetry_2
C1 C10 1_555 1_555
N1 C9 1_555 1_555
C2 C4 1_555 1_555
C3 H1 1_555 1_555
C4 C3 1_555 1_555
C5 H2 1_555 1_555
C6 C4 1_555 1_555
H3 C6 1_555 1_555
C7 H4 1_555 1_555
C8 H5 1_555 1_555
C9 C3 1_555 1_555
C10 C8 1_555 1_555
C11 C12 1_555 1_555
C12 C5 1_555 1_555
C13 C5 1_555 1_555
N2 C13 1_555 1_555
C14 C12 1_555 1_555
H6 C14 1_555 1_555
C15 H7 1_555 1_555
H8 C15 1_555 1_555
H9 C15 1_555 1_555
C16 H10 1_555 1_555
H11 C16 1_555 1_555
H12 C16 1_555 1_555
C17 C10 1_555 1_555
H13 C17 1_555 1_555
N3 C18 1_555 1_555
C18 C8 1_555 1_555
C19 N2 1_555 1_555
H14 C19 1_555 1_555
C20 C17 1_555 1_555
H15 C20 1_555 1_555
C21 N1 1_555 1_555
H16 C21 1_555 1_555
N4 C7 1_555 1_555
O1 C1 1_555 1_555
O2 C7 1_555 1_555
O3 C1 1_555 1_555
O4 C11 1_555 1_555
O5 C2 1_555 1_555
O6 C11 1_555 1_555
O7 C2 1_555 1_555
Tb1 O1 1_555 1_555
N1A C9A 1_555 1_555
C2A C4A 1_555 1_555
C3A H1A 1_555 1_555
C4A C3A 1_555 1_555
C6A C4A 1_555 1_555
H3A C6A 1_555 1_555
C9A C9 1_555 1_555
C21A N1A 1_555 1_555
H16A C21A 1_555 1_555
O5A C2A 1_555 1_555
O7A C2A 1_555 1_555
C1A C10A 1_555 1_555
C5A H2A 1_555 1_555
C7A H4A 1_555 1_555
C8A H5A 1_555 1_555
C10A C8A 1_555 1_555
C11A C12A 1_555 1_555
C12A C5A 1_555 1_555
C13A C5A 1_555 1_555
N2A C13A 1_555 1_555
C14A C12A 1_555 1_555
H6A C14A 1_555 1_555
C15A H7A 1_555 1_555
H8A C15A 1_555 1_555
H9A C15A 1_555 1_555
C16A H10A 1_555 1_555
H11A C16A 1_555 1_555
H12A C16A 1_555 1_555
C17A C10A 1_555 1_555
H13A C17A 1_555 1_555
N3A C18A 1_555 1_555
C18A C8A 1_555 1_555
C19A N2A 1_555 1_555
H14A C19A 1_555 1_555
C20A C17A 1_555 1_555
H15A C20A 1_555 1_555
N4A C7A 1_555 1_555
O1A C1A 1_555 1_555
O2A C7A 1_555 1_555
O3A C1A 1_555 1_555
O4A C11A 1_555 1_555
O6A C11A 1_555 1_555
Tb1A O7 1_555 1_555
O3_2 Tb1A 1_555 1_555
O3A_2 Tb1 1_555 1_555
O4_2 Tb1 1_555 1_555
O4A_2 Tb1A 1_555 1_555
O5A_2 Tb1A 1_555 1_555
O6_2 Tb1A 1_555 1_555
O6A_2 Tb1 1_555 1_555
O7A_2 Tb1 1_555 1_555
Tb1_2 O6A 1_555 1_555
Tb1_3 O3A 1_555 1_555
Tb1_4 O4 1_555 1_555
Tb1_5 O7A 1_555 1_555
Tb1A_2 O4A 1_555 1_555
Tb1A_3 O3 1_555 1_555
Tb1A_4 O6 1_555 1_555
Tb1A_5 O5A 1_555 1_555
C6 C21 1_555 1_555
C13 C18 1_555 1_555
C14 C19 1_555 1_555
C15 N4 1_555 1_555
C16 N4 1_555 1_555
N3 C20 1_555 1_555
O2 Tb1 1_555 1_555
O5 Tb1 1_555 1_555
C3A C9A 1_555 1_555
C6A C21A 1_555 1_555
C13A C18A 1_555 1_555
C14A C19A 1_555 1_555
C15A N4A 1_555 1_555
C16A N4A 1_555 1_555
N3A C20A 1_555 1_555
O1A Tb1A 1_555 1_555
O2A Tb1A 1_555 1_555

#END
