
#######################################################################
#
#                 Cambridge Crystallographic Data Centre
#                                CCDC 
#
#######################################################################
#
# If this CIF has been generated from an entry in the Cambridge 
# Structural Database, then it will include bibliographic, chemical, 
# crystal, experimental, refinement or atomic coordinate data resulting 
# from the CCDC's data processing and validation procedures.
#
#######################################################################

data_ZUQHUQ
_symmetry_cell_setting           triclinic
_symmetry_space_group_name_H-M   'P -1'
_symmetry_Int_Tables_number      2
_space_group_name_Hall           '-P 1'
loop_
_symmetry_equiv_pos_site_id
_symmetry_equiv_pos_as_xyz
1 x,y,z
2 -x,-y,-z
_cell_length_a                   10.0289(8)
_cell_length_b                   10.0339(8)
_cell_length_c                   11.9109(10)
_cell_angle_alpha                101.115(2)
_cell_angle_beta                 91.703(2)
_cell_angle_gamma                104.924(2)
_cell_volume                     1132.44
loop_
_atom_site_label
_atom_site_type_symbol
_atom_site_fract_x
_atom_site_fract_y
_atom_site_fract_z
Cu1 Cu 0.08843(4) 0.33026(4) -0.04481(3)
C1 C 0.4032(3) 0.1485(3) -0.1085(3)
C2 C 0.5336(3) 0.2410(3) -0.0731(3)
H1 H 0.5413 0.3359 -0.0442
C3 C 0.6524(3) 0.1935(3) -0.0802(3)
C4 C 0.6410(3) 0.0523(3) -0.1260(3)
H2 H 0.7193 0.0187 -0.1315
C5 C 0.5115(3) -0.0369(3) -0.1631(3)
C6 C 0.3920(3) 0.0077(3) -0.1539(3)
H3 H 0.3058 -0.0557 -0.1776
C7 C 0.7937(3) 0.2950(3) -0.0428(3)
C8 C 0.2724(3) 0.1958(3) -0.1001(3)
C9 C 0.1976(3) 0.4071(3) 0.1988(3)
H4 H 0.2592 0.4900 0.1889
C10 C 0.0457(4) 0.2131(4) 0.1720(4)
H5 H -0.0215 0.1325 0.1355
C11 C 0.2544(5) 0.4305(4) 0.4105(3)
H6 H 0.3081 0.3710 0.4334
H7 H 0.1874 0.4406 0.4664
C12 C 0.3487(4) 0.5728(4) 0.4079(3)
C13 C 0.4815(5) 0.5812(5) 0.3765(4)
H8 H 0.5108 0.4992 0.3614
C14 C 0.5718(5) 0.7058(5) 0.3670(4)
H9 H 0.6608 0.7086 0.3456
C15 C 0.5281(5) 0.8269(5) 0.3898(4)
H10 H 0.5882 0.9125 0.3838
C16 C 0.3970(5) 0.8227(4) 0.4214(4)
H11 H 0.3698 0.9058 0.4369
C17 C 0.3040(4) 0.6971(4) 0.4309(3)
C18 C 0.1597(4) 0.6987(4) 0.4655(3)
H12 H 0.1328 0.6362 0.5186
H13 H 0.1610 0.7932 0.5048
C19 C 0.0539(4) 0.7131(4) 0.2760(3)
H14 H 0.1161 0.7959 0.2665
C20 C -0.1112(4) 0.5305(4) 0.2520(4)
H15 H -0.1897 0.4594 0.2194
N1 N 0.1113(3) 0.3133(3) 0.1165(3)
N2 N 0.1820(3) 0.3644(3) 0.2967(3)
N3 N 0.0848(4) 0.2391(3) 0.2817(3)
N4 N -0.0522(3) 0.6363(3) 0.2014(3)
N5 N 0.0572(3) 0.6540(3) 0.3654(3)
N6 N -0.0487(4) 0.5353(4) 0.3518(3)
N7 N 0.4999(3) -0.1851(3) -0.2155(4)
O1 O 0.1603(3) 0.1063(3) -0.1287(3)
O2 O 0.2847(2) 0.3247(2) -0.0655(2)
O3 O 0.8040(2) 0.4214(2) -0.0177(2)
O4 O 0.8915(2) 0.2351(2) -0.0460(2)
O5 O 0.6024(4) -0.2248(4) -0.2180(4)
O6 O 0.3861(4) -0.2618(3) -0.2515(4)
Cu1_2 Cu 1.08843(4) 0.33026(4) -0.04481(3)
Cu1A Cu -0.08843(4) 0.66974(4) 0.04481(3)
Cu1A_2 Cu 0.91157(4) 0.66974(4) 0.04481(3)
N4A N 0.0522(3) 0.3637(3) -0.2014(3)
O3A O 0.1960(2) 0.5786(2) 0.0177(2)
O4_2 O -0.1085(2) 0.2351(2) -0.0460(2)
O7 O 0.1576(11) 0.0363(8) 0.4220(9)
O8 O 0.0689(11) 0.0152(9) 0.6292(8)
loop_
_geom_bond_atom_site_label_1
_geom_bond_atom_site_label_2
_geom_bond_site_symmetry_1
_geom_bond_site_symmetry_2
Cu1 N1 1_555 1_555
C1 C2 1_555 1_555
C2 H1 1_555 1_555
C3 C2 1_555 1_555
C4 C3 1_555 1_555
H2 C4 1_555 1_555
C5 C4 1_555 1_555
C6 C1 1_555 1_555
H3 C6 1_555 1_555
C7 C3 1_555 1_555
C8 C1 1_555 1_555
C9 H4 1_555 1_555
C10 H5 1_555 1_555
C11 H6 1_555 1_555
H7 C11 1_555 1_555
C12 C11 1_555 1_555
C13 C12 1_555 1_555
H8 C13 1_555 1_555
C14 C13 1_555 1_555
H9 C14 1_555 1_555
C15 C14 1_555 1_555
H10 C15 1_555 1_555
C16 C15 1_555 1_555
H11 C16 1_555 1_555
C17 C12 1_555 1_555
C18 C17 1_555 1_555
H12 C18 1_555 1_555
H13 C18 1_555 1_555
C19 H14 1_555 1_555
C20 H15 1_555 1_555
N1 C9 1_555 1_555
N2 C9 1_555 1_555
N3 C10 1_555 1_555
N4 C19 1_555 1_555
N5 C18 1_555 1_555
N6 C20 1_555 1_555
N7 C5 1_555 1_555
O1 Cu1 1_555 1_555
O2 Cu1 1_555 1_555
O3 C7 1_555 1_555
O4 C7 1_555 1_555
O5 N7 1_555 1_555
O6 N7 1_555 1_555
Cu1_2 O4 1_555 1_555
Cu1A N4 1_555 1_555
Cu1A_2 O3 1_555 1_555
N4A Cu1 1_555 1_555
O3A Cu1 1_555 1_555
O4_2 Cu1 1_555 1_555
C5 C6 1_555 1_555
C8 O1 1_555 1_555
C8 O2 1_555 1_555
C10 N1 1_555 1_555
C11 N2 1_555 1_555
C16 C17 1_555 1_555
C19 N5 1_555 1_555
C20 N4 1_555 1_555
N2 N3 1_555 1_555
N5 N6 1_555 1_555

#END
