
#######################################################################
#
#                 Cambridge Crystallographic Data Centre
#                                CCDC 
#
#######################################################################
#
# If this CIF has been generated from an entry in the Cambridge 
# Structural Database, then it will include bibliographic, chemical, 
# crystal, experimental, refinement or atomic coordinate data resulting 
# from the CCDC's data processing and validation procedures.
#
#######################################################################

data_ZUQPEG
_symmetry_cell_setting           triclinic
_symmetry_space_group_name_H-M   'P -1'
_symmetry_Int_Tables_number      2
_space_group_name_Hall           '-P 1'
loop_
_symmetry_equiv_pos_site_id
_symmetry_equiv_pos_as_xyz
1 x,y,z
2 -x,-y,-z
_cell_length_a                   7.907(2)
_cell_length_b                   10.435(3)
_cell_length_c                   7.731(3)
_cell_angle_alpha                102.32(3)
_cell_angle_beta                 114.17(3)
_cell_angle_gamma                71.87(2)
_cell_volume                     550.344
loop_
_atom_site_label
_atom_site_type_symbol
_atom_site_fract_x
_atom_site_fract_y
_atom_site_fract_z
Br1 Br 0.50962(4) 0.65634(3) 0.40897(4)
Cu1 Cu 0.70801(5) 0.42559(4) 0.50911(5)
S1 S 0.7797(1) 0.28114(7) 0.2634(1)
N1 N 0.9543(4) 0.4383(3) 0.7233(4)
C1 C 0.7155(5) 0.1232(3) 0.2467(5)
C2 C 0.7586(4) 0.0209(3) 0.0915(4)
C3 C 0.9074(5) -0.0936(3) 0.1369(4)
C4 C 0.9703(5) -0.1787(3) -0.0029(5)
C5 C 0.8830(4) -0.1493(3) -0.1904(4)
C6 C 0.7247(4) -0.0397(3) -0.2376(4)
C7 C 0.6639(4) 0.0437(3) -0.0980(5)
C8 C 1.0398(4) 0.2301(3) 0.3416(4)
C9 C 1.1036(4) 0.4272(3) 0.8364(4)
C10 C 1.2934(5) 0.4107(4) 0.9827(5)
H1 H 0.5859 0.1478 0.2283
H2 H 0.7812 0.0790 0.3632
H3 H 0.9702 -0.1124 0.2664
H4 H 1.0780 -0.2528 0.0352
H5 H 0.6674 -0.0200 -0.3658
H6 H 0.5633 0.1260 -0.1328
H7 H 1.0858 0.3092 0.3935
H8 H 1.0929 0.1762 0.4517
H9 H 1.3075 0.4960 1.0635
H10 H 1.3081 0.3594 1.0830
H11 H 1.3826 0.3782 0.9359
Cu1A Cu 0.29199(5) 0.57441(4) 0.49089(5)
Br1A Br 0.49038(4) 0.34366(3) 0.59103(4)
C8A C 0.9602(4) -0.2301(3) -0.3416(4)
C5A C 1.1170(4) 0.1493(3) 0.1904(4)
S1A S 1.2203(1) -0.28114(7) -0.2634(1)
H7A H 0.9142 -0.3092 -0.3935
H8A H 0.9071 -0.1762 -0.4517
C4A C 1.0297(5) 0.1787(3) 0.0029(5)
C6A C 1.2753(4) 0.0397(3) 0.2376(4)
Cu1A_2 Cu 1.29199(5) -0.42559(4) -0.50911(5)
C1A C 1.2845(5) -0.1232(3) -0.2467(5)
C3A C 1.0926(5) 0.0936(3) -0.1369(4)
H4A H 0.9220 0.2528 -0.0352
C7A C 1.3361(4) -0.0437(3) 0.0980(5)
H5A H 1.3326 0.0200 0.3658
C2A C 1.2414(4) -0.0209(3) -0.0915(4)
H1A H 1.4141 -0.1478 -0.2283
H2A H 1.2188 -0.0790 -0.3632
H3A H 1.0298 0.1124 -0.2664
H6A H 1.4367 -0.1260 0.1328
S1A_2 S 0.2203(1) 0.71886(7) 0.7366(1)
N1A N 0.0457(4) 0.5617(3) 0.2767(4)
C9A C -0.1036(4) 0.5728(3) 0.1636(4)
C10A C -0.2934(5) 0.5893(4) 0.0173(5)
H9A H -0.3075 0.5040 -0.0635
H10A H -0.3081 0.6406 -0.0830
H11A H -0.3826 0.6218 0.0641
loop_
_geom_bond_atom_site_label_1
_geom_bond_atom_site_label_2
_geom_bond_site_symmetry_1
_geom_bond_site_symmetry_2
Br1 Cu1 1_555 1_555
Cu1 S1 1_555 1_555
S1 C1 1_555 1_555
N1 Cu1 1_555 1_555
C1 C2 1_555 1_555
C2 C3 1_555 1_555
C3 C4 1_555 1_555
C4 C5 1_555 1_555
C5 C6 1_555 1_555
C6 C7 1_555 1_555
C7 C2 1_555 1_555
C8 S1 1_555 1_555
C9 N1 1_555 1_555
C10 C9 1_555 1_555
H1 C1 1_555 1_555
H2 C1 1_555 1_555
H3 C3 1_555 1_555
H4 C4 1_555 1_555
H5 C6 1_555 1_555
H6 C7 1_555 1_555
H7 C8 1_555 1_555
H8 C8 1_555 1_555
H9 C10 1_555 1_555
H10 C10 1_555 1_555
H11 C10 1_555 1_555
Cu1A Br1 1_555 1_555
Br1A Cu1 1_555 1_555
C8A C5 1_555 1_555
C5A C8 1_555 1_555
S1A C8A 1_555 1_555
H7A C8A 1_555 1_555
H8A C8A 1_555 1_555
C4A C5A 1_555 1_555
C6A C5A 1_555 1_555
Cu1A_2 S1A 1_555 1_555
C1A S1A 1_555 1_555
C3A C4A 1_555 1_555
H4A C4A 1_555 1_555
C7A C6A 1_555 1_555
H5A C6A 1_555 1_555
C2A C1A 1_555 1_555
H1A C1A 1_555 1_555
H2A C1A 1_555 1_555
H3A C3A 1_555 1_555
H6A C7A 1_555 1_555
S1A_2 Cu1A 1_555 1_555
N1A Cu1A 1_555 1_555
C9A N1A 1_555 1_555
C10A C9A 1_555 1_555
H9A C10A 1_555 1_555
H10A C10A 1_555 1_555
H11A C10A 1_555 1_555
Cu1A Br1A 1_555 1_555
C3A C2A 1_555 1_555
C7A C2A 1_555 1_555

#END
