
#######################################################################
#
#                 Cambridge Crystallographic Data Centre
#                                CCDC 
#
#######################################################################
#
# If this CIF has been generated from an entry in the Cambridge 
# Structural Database, then it will include bibliographic, chemical, 
# crystal, experimental, refinement or atomic coordinate data resulting 
# from the CCDC's data processing and validation procedures.
#
#######################################################################

data_ZUQSUB
_symmetry_cell_setting           monoclinic
_symmetry_space_group_name_H-M   'P 21/c'
_symmetry_Int_Tables_number      14
_space_group_name_Hall           '-P 2ybc'
loop_
_symmetry_equiv_pos_site_id
_symmetry_equiv_pos_as_xyz
1 x,y,z
2 -x,1/2+y,1/2-z
3 -x,-y,-z
4 x,1/2-y,1/2+z
_cell_length_a                   10.2665(6)
_cell_length_b                   20.6152(10)
_cell_length_c                   10.2018(5)
_cell_angle_alpha                90
_cell_angle_beta                 108.659(6)
_cell_angle_gamma                90
_cell_volume                     2045.68
loop_
_atom_site_label
_atom_site_type_symbol
_atom_site_fract_x
_atom_site_fract_y
_atom_site_fract_z
Zn1 Zn 0.34430(3) 0.085854(15) 0.47903(3)
C1 C 0.4043(3) 0.09863(13) 1.2450(3)
C2 C 0.4803(3) 0.09292(12) 1.1430(3)
C3 C 0.6216(3) 0.08910(13) 1.1851(3)
C4 C 0.6858(3) 0.07900(14) 1.0878(3)
C5 C 0.6141(3) 0.07391(14) 0.9490(3)
C6 C 0.4732(3) 0.07951(12) 0.9061(3)
C7 C 0.4076(3) 0.08852(12) 1.0034(3)
C8 C 0.3905(3) 0.07600(12) 0.7556(3)
C9 C 0.1555(3) -0.02545(16) 0.4889(3)
C10 C 0.1624(3) -0.01189(14) 0.2886(3)
C11 C 0.0310(3) -0.11081(15) 0.1832(3)
H1 H -0.0022 -0.0884 0.0951
H2 H -0.0470 -0.1319 0.1993
C12 C 0.1343(3) -0.16171(13) 0.1757(3)
C13 C 0.2625(3) -0.16568(17) 0.2742(4)
C14 C 0.3559(4) -0.21137(19) 0.2653(4)
C15 C 0.3250(4) -0.25359(19) 0.1577(5)
C16 C 0.1980(4) -0.25054(17) 0.0587(4)
C17 C 0.1018(3) -0.20544(14) 0.0667(3)
C18 C -0.0365(3) -0.20581(15) -0.0448(3)
H3 H -0.0715 -0.1618 -0.0611
H4 H -0.0263 -0.2221 -0.1302
C19 C -0.1695(4) -0.30701(16) -0.0356(3)
C20 C -0.2700(4) -0.27390(16) 0.0973(4)
O1 O 0.4596(2) 0.07290(10) 0.67112(18)
O2 O 0.2650(2) 0.07706(11) 0.72110(19)
O3 O 0.2785(2) 0.10499(12) 1.2014(2)
O4 O 0.4733(2) 0.09508(10) 1.37210(18)
O5 O 0.9008(3) 0.09298(16) 1.2445(3)
O6 O 0.8861(2) 0.04375(15) 1.0561(2)
N1 N 0.2085(2) 0.01393(11) 0.4128(2)
N2 N 0.0891(2) -0.06390(12) 0.2921(2)
N3 N 0.0834(3) -0.07396(13) 0.4216(2)
N4 N -0.1340(2) -0.24625(12) -0.0051(2)
N5 N -0.1977(3) -0.22415(13) 0.0833(3)
N6 N -0.2560(3) -0.32635(11) 0.0257(2)
N7 N 0.8343(3) 0.07158(16) 1.1322(3)
H5 H 0.310(3) 0.0918(12) 0.977(3)
H6 H 0.180(3) 0.0036(12) 0.214(3)
H7 H 0.668(3) 0.0931(13) 1.271(3)
H8 H 0.663(3) 0.0677(14) 0.888(3)
H9 H 0.280(3) -0.1379(14) 0.347(3)
H10 H 0.442(3) -0.2106(15) 0.333(3)
H11 H 0.170(3) -0.0194(12) 0.571(3)
H12 H -0.130(3) -0.3275(16) -0.081(3)
H13 H 0.389(4) -0.285(2) 0.149(4)
H14 H -0.326(3) -0.2720(15) 0.152(3)
H15 H 0.175(3) -0.2789(17) -0.016(4)
Zn1_2 Zn 0.34430(3) 0.085854(15) 1.47903(3)
Zn1A Zn -0.34430(3) -0.414146(15) 0.02097(3)
O4_2 O 0.4733(2) 0.09508(10) 0.37210(18)
N6A N 0.2560(3) 0.17365(11) 0.4743(2)
loop_
_geom_bond_atom_site_label_1
_geom_bond_atom_site_label_2
_geom_bond_site_symmetry_1
_geom_bond_site_symmetry_2
Zn1 O1 1_555 1_555
C1 C2 1_555 1_555
C2 C3 1_555 1_555
C3 C4 1_555 1_555
C4 C5 1_555 1_555
C5 C6 1_555 1_555
C6 C7 1_555 1_555
C7 C2 1_555 1_555
C8 C6 1_555 1_555
C9 N1 1_555 1_555
C10 N1 1_555 1_555
C11 H1 1_555 1_555
H2 C11 1_555 1_555
C12 C11 1_555 1_555
C13 C12 1_555 1_555
C14 C13 1_555 1_555
C15 C14 1_555 1_555
C16 C15 1_555 1_555
C17 C12 1_555 1_555
C18 C17 1_555 1_555
H3 C18 1_555 1_555
H4 C18 1_555 1_555
C19 N4 1_555 1_555
C20 N5 1_555 1_555
O1 C8 1_555 1_555
O2 C8 1_555 1_555
O3 C1 1_555 1_555
O4 C1 1_555 1_555
O5 N7 1_555 1_555
O6 N7 1_555 1_555
N1 Zn1 1_555 1_555
N2 C10 1_555 1_555
N3 C9 1_555 1_555
N4 C18 1_555 1_555
N5 N4 1_555 1_555
N6 C19 1_555 1_555
N7 C4 1_555 1_555
H5 C7 1_555 1_555
H6 C10 1_555 1_555
H7 C3 1_555 1_555
H8 C5 1_555 1_555
H9 C13 1_555 1_555
H10 C14 1_555 1_555
H11 C9 1_555 1_555
H12 C19 1_555 1_555
H13 C15 1_555 1_555
H14 C20 1_555 1_555
H15 C16 1_555 1_555
Zn1_2 O4 1_555 1_555
Zn1A N6 1_555 1_555
O4_2 Zn1 1_555 1_555
N6A Zn1 1_555 1_555
C11 N2 1_555 1_555
C16 C17 1_555 1_555
C20 N6 1_555 1_555
N2 N3 1_555 1_555

#END
