
#######################################################################
#
#                 Cambridge Crystallographic Data Centre
#                                CCDC 
#
#######################################################################
#
# If this CIF has been generated from an entry in the Cambridge 
# Structural Database, then it will include bibliographic, chemical, 
# crystal, experimental, refinement or atomic coordinate data resulting 
# from the CCDC's data processing and validation procedures.
#
#######################################################################

data_ZUQVEM
_symmetry_cell_setting           cubic
_symmetry_space_group_name_H-M   'P 41 3 2'
_symmetry_Int_Tables_number      213
_space_group_name_Hall           'P 4bd 2ab 3'
loop_
_symmetry_equiv_pos_site_id
_symmetry_equiv_pos_as_xyz
1 x,y,z
2 1/4-y,3/4+x,1/4+z
3 1/2+x,1/2-y,-z
4 z,x,y
5 1/2-x,-y,1/2+z
6 3/4+y,1/4+x,1/4-z
7 1/4-x,3/4+z,1/4+y
8 1/4+y,1/4-x,3/4+z
9 -x,1/2+y,1/2-z
10 1/2-z,-x,1/2+y
11 3/4-y,3/4-x,3/4-z
12 1/4+x,1/4-z,3/4+y
13 1/2+z,1/2-x,-y
14 3/4-x,3/4-z,3/4-y
15 -z,1/2+x,1/2-y
16 3/4+x,1/4+z,1/4-y
17 y,z,x
18 1/4-z,3/4+y,1/4+x
19 3/4+z,1/4+y,1/4-x
20 1/2+y,1/2-z,-x
21 3/4-z,3/4-y,3/4-x
22 -y,1/2+z,1/2-x
23 1/2-y,-z,1/2+x
24 1/4+z,1/4-y,3/4+x
_cell_length_a                   15.564(3)
_cell_length_b                   15.564(3)
_cell_length_c                   15.564(3)
_cell_angle_alpha                90
_cell_angle_beta                 90
_cell_angle_gamma                90
_cell_volume                     3770.19
loop_
_atom_site_label
_atom_site_type_symbol
_atom_site_fract_x
_atom_site_fract_y
_atom_site_fract_z
Mn1 Mn 0.1504(1) 0.1504(1) 0.1504(1)
O1 O 0.1440(2) 0.1351(2) 0.2883(2)
O2 O 0.1364(2) 0.0129(2) 0.1634(2)
C6 C 0.1250(3) 0.0601 0.3101(3)
C7 C 0.1250(3) -0.0106 0.2394(3)
O1F O 0.1060(2) 0.0383(2) 0.3851(2)
Mn1F Mn 0.0996(1) -0.0996(1) 0.4004(1)
O1Q O -0.0383(2) -0.1149(2) 0.3940(2)
O2Q O 0.0866(2) -0.2371(2) 0.3864(2)
O1A O 0.1149(2) -0.1060(2) 0.5383(2)
O2F O 0.1136(2) -0.0866(2) 0.2629(2)
O1C O 0.2883(2) 0.1440(2) 0.1351(2)
C6C C 0.3101(3) 0.1250(3) 0.0601
O1P O 0.1351(2) 0.2883(2) 0.1440(2)
C6P C 0.0601 0.3101(3) 0.1250(3)
O2C O 0.1634(2) 0.1364(2) 0.0129(2)
C7C C 0.2394(3) 0.1250(3) -0.0106
O2P O 0.0129(2) 0.1634(2) 0.1364(2)
C7P C -0.0106 0.2394(3) 0.1250(3)
O2A O 0.2371(2) -0.1136(2) 0.4134(2)
Mn1E Mn -0.0996(1) 0.4004(1) 0.0996(1)
O2G O 0.2629(2) 0.1136(2) -0.0866(2)
Mn1G Mn 0.4004(1) 0.0996(1) -0.0996(1)
O1G O 0.3851(2) 0.1060(2) 0.0383(2)
O2R O -0.0866(2) 0.2629(2) 0.1136(2)
O1R O 0.0383(2) 0.3851(2) 0.1060(2)
Cl1 Cl 0.3750 0.6250 0.1250
O3 O 0.3337(6) 0.5725(6) 0.1849(6)
O4 O 0.4272(6) 0.5728(6) 0.0728(6)
O3M O 0.4163(6) 0.5651(6) 0.1775(6)
O3E O 0.3225(6) 0.5837(6) 0.0651(6)
O3I O 0.3151(6) 0.6663(6) 0.0725(6)
O3U O 0.4275(6) 0.6849(6) 0.1663(6)
O3W O 0.4349(6) 0.6775(6) 0.0837(6)
O4E O 0.3228(6) 0.6772(6) 0.1772(6)
Cr1 Cr 0.6250 0.8750 0.1250
N1 N 0.6270(2) 0.7439(2) 0.1132(2)
C1 C 0.6268(3) 0.7146(3) 0.0312(3)
C2 C 0.6302(3) 0.6267(3) 0.0134(3)
C3 C 0.6342(3) 0.5696(3) 0.0818(4)
C4 C 0.6359(3) 0.6005(3) 0.1645(3)
C5 C 0.6312(3) 0.6873(3) 0.1779(3)
H1 H 0.6298(3) 0.6069(3) -0.0430(3)
H2 H 0.6356(3) 0.5107(3) 0.0718(4)
H3 H 0.6403(3) 0.5629(3) 0.2108(3)
H4 H 0.6308(3) 0.7078(3) 0.2340(3)
C1F C 0.6232(3) 0.7812(3) -0.0354(3)
N1F N 0.6230(2) 0.8632(2) -0.0061(2)
N1E N 0.4939(2) 0.8770(2) 0.1368(2)
C1E C 0.4646(3) 0.8768(3) 0.2188(3)
C1L C 0.5312(3) 0.8732(3) 0.2854(3)
N1L N 0.6132(2) 0.8730(2) 0.2561(2)
N1T N 0.6368(2) 1.0061(2) 0.1230(2)
C1T C 0.7188(3) 1.0354(3) 0.1232(3)
C1V C 0.7854(3) 0.9688(3) 0.1268(3)
N1V N 0.7561(2) 0.8868(2) 0.1270(2)
C5V C 0.8127(3) 0.8221(3) 0.1312(3)
C4V C 0.8995(3) 0.8355(3) 0.1359(3)
C3V C 0.9304(3) 0.9182(4) 0.1342(3)
C2V C 0.8733(3) 0.9866(3) 0.1302(3)
H1V H 0.8931(3) 1.0430(3) 0.1298(3)
H2V H 0.9893(3) 0.9282(4) 0.1356(3)
H3V H 0.9371(3) 0.7892(3) 0.1403(3)
H4V H 0.7922(3) 0.7660(3) 0.1308(3)
C2T C 0.7366(3) 1.1233(3) 0.1198(3)
C3T C 0.6682(4) 1.1804(3) 0.1158(3)
C4T C 0.5855(3) 1.1495(3) 0.1141(3)
C5T C 0.5721(3) 1.0627(3) 0.1188(3)
H4T H 0.5160(3) 1.0422(3) 0.1192(3)
H3T H 0.5392(3) 1.1871(3) 0.1097(3)
H2T H 0.6782(4) 1.2393(3) 0.1144(3)
H1T H 0.7930(3) 1.1431(3) 0.1202(3)
C5L C 0.6779(3) 0.8688(3) 0.3127(3)
C4L C 0.6645(3) 0.8641(3) 0.3995(3)
C3L C 0.5818(4) 0.8658(3) 0.4304(3)
C2L C 0.5134(3) 0.8698(3) 0.3733(3)
H1L H 0.4570(3) 0.8702(3) 0.3931(3)
H2L H 0.5718(4) 0.8644(3) 0.4893(3)
H3L H 0.7108(3) 0.8597(3) 0.4371(3)
H4L H 0.7340(3) 0.8692(3) 0.2922(3)
C2E C 0.3767(3) 0.8802(3) 0.2366(3)
C3E C 0.3196(3) 0.8842(3) 0.1682(4)
C4E C 0.3505(3) 0.8859(3) 0.0855(3)
C5E C 0.4373(3) 0.8812(3) 0.0721(3)
H4E H 0.4578(3) 0.8808(3) 0.0160(3)
H3E H 0.3129(3) 0.8903(3) 0.0392(3)
H2E H 0.2607(3) 0.8856(3) 0.1782(4)
H1E H 0.3569(3) 0.8798(3) 0.2930(3)
C5F C 0.6188(3) 0.9279(3) -0.0627(3)
C4F C 0.6141(3) 0.9145(3) -0.1495(3)
C3F C 0.6158(3) 0.8318(4) -0.1804(3)
C2F C 0.6198(3) 0.7634(3) -0.1233(3)
H1F H 0.6202(3) 0.7070(3) -0.1431(3)
H2F H 0.6144(3) 0.8218(4) -0.2393(3)
H3F H 0.6097(3) 0.9608(3) -0.1871(3)
H4F H 0.6192(3) 0.9840(3) -0.0422(3)
loop_
_geom_bond_atom_site_label_1
_geom_bond_atom_site_label_2
_geom_bond_site_symmetry_1
_geom_bond_site_symmetry_2
Cr1 N1 1_555 1_555
N1 C1 1_555 1_555
C1 C2 1_555 1_555
C2 C3 1_555 1_555
C3 C4 1_555 1_555
C4 C5 1_555 1_555
C5 N1 1_555 1_555
Mn1 O1 1_555 1_555
O1 C6 1_555 1_555
O2 Mn1 1_555 1_555
C6 C7 1_555 1_555
C7 O2 1_555 1_555
Cl1 O3 1_555 1_555
O3 O3M 1_555 1_555
O4 Cl1 1_555 1_555
H1 C2 1_555 1_555
H2 C3 1_555 1_555
H3 C4 1_555 1_555
H4 C5 1_555 1_555
C1F C1 1_555 1_555
N1F Cr1 1_555 1_555
N1E Cr1 1_555 1_555
C1E N1E 1_555 1_555
C1L C1E 1_555 1_555
N1L Cr1 1_555 1_555
N1T Cr1 1_555 1_555
C1T N1T 1_555 1_555
C1V C1T 1_555 1_555
N1V Cr1 1_555 1_555
C5V N1V 1_555 1_555
C4V C5V 1_555 1_555
C3V C4V 1_555 1_555
C2V C1V 1_555 1_555
H1V C2V 1_555 1_555
H2V C3V 1_555 1_555
H3V C4V 1_555 1_555
H4V C5V 1_555 1_555
C2T C1T 1_555 1_555
C3T C2T 1_555 1_555
C4T C3T 1_555 1_555
C5T N1T 1_555 1_555
H4T C5T 1_555 1_555
H3T C4T 1_555 1_555
H2T C3T 1_555 1_555
H1T C2T 1_555 1_555
C5L N1L 1_555 1_555
C4L C5L 1_555 1_555
C3L C4L 1_555 1_555
C2L C1L 1_555 1_555
H1L C2L 1_555 1_555
H2L C3L 1_555 1_555
H3L C4L 1_555 1_555
H4L C5L 1_555 1_555
C2E C1E 1_555 1_555
C3E C2E 1_555 1_555
C4E C3E 1_555 1_555
C5E N1E 1_555 1_555
H4E C5E 1_555 1_555
H3E C4E 1_555 1_555
H2E C3E 1_555 1_555
H1E C2E 1_555 1_555
C5F N1F 1_555 1_555
C4F C5F 1_555 1_555
C3F C4F 1_555 1_555
C2F C1F 1_555 1_555
H1F C2F 1_555 1_555
H2F C3F 1_555 1_555
H3F C4F 1_555 1_555
H4F C5F 1_555 1_555
O1F C6 1_555 1_555
Mn1F O1F 1_555 1_555
O1Q Mn1F 1_555 1_555
O2Q Mn1F 1_555 1_555
O1A Mn1F 1_555 1_555
O2F C7 1_555 1_555
O1C Mn1 1_555 1_555
C6C O1C 1_555 1_555
O1P Mn1 1_555 1_555
C6P O1P 1_555 1_555
O2C Mn1 1_555 1_555
C7C C6C 1_555 1_555
O2P Mn1 1_555 1_555
C7P C6P 1_555 1_555
O2A Mn1F 1_555 1_555
O3M Cl1 1_555 1_555
O3E Cl1 1_555 1_555
O3I Cl1 1_555 1_555
O3U Cl1 1_555 1_555
O3W Cl1 1_555 1_555
O4E Cl1 1_555 1_555
Mn1E O2R 1_555 1_555
O2G C7C 1_555 1_555
Mn1G O2G 1_555 1_555
O1G C6C 1_555 1_555
O2R C7P 1_555 1_555
O1R C6P 1_555 1_555
O3 O4E 1_555 1_555
O4 O3E 1_555 1_555
O4 O3M 1_555 1_555
O4 O3W 1_555 1_555
C1F N1F 1_555 1_555
C1L N1L 1_555 1_555
C1V N1V 1_555 1_555
C3V C2V 1_555 1_555
C4T C5T 1_555 1_555
C3L C2L 1_555 1_555
C4E C5E 1_555 1_555
C3F C2F 1_555 1_555
Mn1F O2F 1_555 1_555
O2C C7C 1_555 1_555
O2P C7P 1_555 1_555
O3E O3I 1_555 1_555
O3I O4E 1_555 1_555
O3U O3W 1_555 1_555
O3U O4E 1_555 1_555
Mn1E O1R 1_555 1_555
Mn1G O1G 1_555 1_555

#END
