
#######################################################################
#
#                 Cambridge Crystallographic Data Centre
#                                CCDC 
#
#######################################################################
#
# If this CIF has been generated from an entry in the Cambridge 
# Structural Database, then it will include bibliographic, chemical, 
# crystal, experimental, refinement or atomic coordinate data resulting 
# from the CCDC's data processing and validation procedures.
#
#######################################################################

data_ZUQWIR01
_symmetry_cell_setting           orthorhombic
_symmetry_space_group_name_H-M   'P 21 21 21'
_symmetry_Int_Tables_number      19
_space_group_name_Hall           'P 2ac 2ab'
loop_
_symmetry_equiv_pos_site_id
_symmetry_equiv_pos_as_xyz
1 x,y,z
2 1/2-x,-y,1/2+z
3 1/2+x,1/2-y,-z
4 -x,1/2+y,1/2-z
_cell_length_a                   16.8268(7)
_cell_length_b                   7.1673(8)
_cell_length_c                   28.8228(12)
_cell_angle_alpha                90
_cell_angle_beta                 90
_cell_angle_gamma                90
_cell_volume                     3476.11
loop_
_atom_site_label
_atom_site_type_symbol
_atom_site_fract_x
_atom_site_fract_y
_atom_site_fract_z
P1 P -0.571(1) 0.286(3) 0.110(1)
P2 P -0.331(1) -0.229(3) 0.149(1)
P3 P -0.716(1) -0.136(3) 0.150(1)
P4 P -0.218(2) 0.308(6) 0.212(1)
O1 O -0.528(1) 0.100(3) 0.120(1)
O2 O -0.627(2) 0.341(5) 0.150(1)
O3 O -0.507(1) 0.441(3) 0.103(1)
O4 O -0.384(2) -0.053(3) 0.143(2)
O5 O -0.302(2) -0.249(6) 0.199(1)
O6 O -0.380(1) -0.402(3) 0.134(2)
O7 O -0.733(2) -0.292(4) 0.186(1)
O8 O -0.637(2) -0.172(5) 0.124(2)
O9 O -0.716(2) 0.057(4) 0.173(1)
O10 O -0.256(4) 0.122(6) 0.229(1)
O11 O -0.266(3) 0.392(8) 0.172(2)
O12 O -0.207(3) 0.454(7) 0.251(1)
O13 O -0.367(3) 0.237(8) 0.076(1)
O14 O -0.446(4) 0.302(2) 0.188(1)
O15 O -0.534(5) -0.206(6) 0.198(1)
O16 O -0.504(5) -0.226(5) 0.060(1)
O17 O -0.783(1) 0.346(9) 0.224(3)
O18 O -0.576(1) 0.393(22) 0.232(3)
U1 U -0.3936(4) 0.2680(25) 0.1352(2)
U2 U -0.5093(4) -0.2318(25) 0.1210(2)
U3 U -0.6797(5) 0.3808(22) 0.2250(3)
C1 C -0.630(2) 0.263(7) 0.057(1)
C2 C -0.692(2) 0.387(7) 0.051(2)
C3 C -0.727(3) 0.403(12) 0.008(2)
C4 C -0.691(4) 0.318(12) -0.030(1)
C5 C -0.616(4) 0.241(12) -0.025(1)
C6 C -0.594(3) 0.184(12) 0.019(1)
C7 C -0.246(2) -0.206(8) 0.111(1)
C8 C -0.252(2) -0.247(14) 0.065(1)
C9 C -0.185(3) -0.285(13) 0.039(2)
C10 C -0.111(3) -0.245(11) 0.058(2)
C11 C -0.104(2) -0.203(11) 0.104(2)
C12 C -0.178(2) -0.171(16) 0.130(2)
C13 C -0.796(2) -0.139(5) 0.107(1)
C14 C -0.805(3) 0.013(7) 0.078(1)
C15 C -0.836(4) -0.014(12) 0.034(1)
C16 C -0.883(4) -0.169(12) 0.026(1)
C17 C -0.881(4) -0.316(10) 0.057(2)
C18 C -0.833(4) -0.305(7) 0.096(2)
C19 C -0.119(2) 0.250(11) 0.191(1)
C20 C -0.080(3) 0.379(15) 0.163(2)
C21 C 0.001(3) 0.361(21) 0.156(2)
C22 C 0.045(2) 0.248(25) 0.186(3)
C23 C 0.006(4) 0.118(22) 0.213(3)
C24 C -0.077(4) 0.112(15) 0.213(2)
O6_2 O -0.380(1) 0.598(3) 0.134(2)
U2_2 U -0.5093(4) 0.7682(25) 0.1210(2)
U3C U -0.3203(5) -0.1192(22) 0.2750(3)
U3_2 U -0.6797(5) -0.6192(22) 0.2250(3)
O3_2 O -0.507(1) -0.559(3) 0.103(1)
O5C O -0.698(2) 0.251(6) 0.301(1)
O7_2 O -0.733(2) 0.708(4) 0.186(1)
O10C O -0.744(4) 0.622(6) 0.271(1)
U1_2 U -0.3936(4) -0.7320(25) 0.1352(2)
O19 O -0.437(5) 0.556(11) 0.256(2)
loop_
_geom_bond_atom_site_label_1
_geom_bond_atom_site_label_2
_geom_bond_site_symmetry_1
_geom_bond_site_symmetry_2
P1 O1 1_555 1_555
P2 O4 1_555 1_555
P3 O7 1_555 1_555
P4 O10 1_555 1_555
O1 U1 1_555 1_555
O2 P1 1_555 1_555
O3 P1 1_555 1_555
O4 U1 1_555 1_555
O5 P2 1_555 1_555
O6 P2 1_555 1_555
O7 U3_2 1_555 1_555
O8 P3 1_555 1_555
O9 P3 1_555 1_555
O10 U3C 1_555 1_555
O11 P4 1_555 1_555
O12 P4 1_555 1_555
O13 U1 1_555 1_555
O14 U1 1_555 1_555
O15 U2 1_555 1_555
O16 U2 1_555 1_555
O17 U3 1_555 1_555
O18 U3 1_555 1_555
U1 O3 1_555 1_555
U2 O1 1_555 1_555
U3 O2 1_555 1_555
C1 P1 1_555 1_555
C2 C1 1_555 1_555
C3 C2 1_555 1_555
C4 C3 1_555 1_555
C5 C4 1_555 1_555
C6 C1 1_555 1_555
C7 P2 1_555 1_555
C8 C7 1_555 1_555
C9 C8 1_555 1_555
C10 C9 1_555 1_555
C11 C10 1_555 1_555
C12 C7 1_555 1_555
C13 P3 1_555 1_555
C14 C13 1_555 1_555
C15 C14 1_555 1_555
C16 C15 1_555 1_555
C17 C16 1_555 1_555
C18 C13 1_555 1_555
C19 P4 1_555 1_555
C20 C19 1_555 1_555
C21 C20 1_555 1_555
C22 C21 1_555 1_555
C23 C22 1_555 1_555
C24 C19 1_555 1_555
O6_2 U1 1_555 1_555
U2_2 O3 1_555 1_555
U3C O5 1_555 1_555
O3_2 U2 1_555 1_555
O5C U3 1_555 1_555
O7_2 U3 1_555 1_555
O10C U3 1_555 1_555
U1_2 O6 1_555 1_555
O4 U2 1_555 1_555
O6 U2 1_555 1_555
O8 U2 1_555 1_555
O9 U3 1_555 1_555
O11 U1 1_555 1_555
C5 C6 1_555 1_555
C11 C12 1_555 1_555
C17 C18 1_555 1_555
C23 C24 1_555 1_555
O6_2 U2_2 1_555 1_555
O3_2 U1_2 1_555 1_555

#END
