
#######################################################################
#
#                 Cambridge Crystallographic Data Centre
#                                CCDC 
#
#######################################################################
#
# If this CIF has been generated from an entry in the Cambridge 
# Structural Database, then it will include bibliographic, chemical, 
# crystal, experimental, refinement or atomic coordinate data resulting 
# from the CCDC's data processing and validation procedures.
#
#######################################################################

data_ZURMII
_symmetry_cell_setting           monoclinic
_symmetry_space_group_name_H-M   'C 2/c'
_symmetry_Int_Tables_number      15
_space_group_name_Hall           '-C 2yn'
loop_
_symmetry_equiv_pos_site_id
_symmetry_equiv_pos_as_xyz
1 x,y,z
2 -x,y,1/2-z
3 1/2+x,1/2+y,z
4 1/2-x,1/2+y,1/2-z
5 -x,-y,-z
6 x,-y,1/2+z
7 1/2-x,1/2-y,-z
8 1/2+x,1/2-y,1/2+z
_cell_length_a                   26.121(6)
_cell_length_b                   10.086(2)
_cell_length_c                   17.947(4)
_cell_angle_alpha                90
_cell_angle_beta                 116.76(3)
_cell_angle_gamma                90
_cell_volume                     4221.86
loop_
_atom_site_label
_atom_site_type_symbol
_atom_site_fract_x
_atom_site_fract_y
_atom_site_fract_z
Mg1 Mg 0.00000 0.00000 0.00000
O1 O 0.0515(2) 0.1492(4) -0.0040(2)
O2 O -0.0567(2) 0.1311(3) 0.0094(2)
O3 O 0.0973(2) 0.3415(4) 0.0170(2)
O4 O -0.1227(2) 0.2887(4) -0.0458(3)
O5 O 0.0490(2) -0.0120(4) 0.1271(2)
O6 O 0.0959(2) -0.0293(5) 0.2650(2)
C1 C 0.0613(2) 0.2602(5) 0.0259(3)
C2 C -0.0692(2) 0.2463(6) -0.0040(3)
C3 C 0.0342(2) 0.3207(5) 0.0765(3)
C4 C -0.0289(2) 0.3609(5) 0.0200(3)
C5 C 0.1249(3) 0.2944(6) -0.0338(4)
C6 C 0.1684(5) 0.3911(13) -0.0253(8)
C7 C -0.1668(3) 0.1846(8) -0.0712(6)
C8 C -0.1862(5) 0.1577(13) -0.0113(8)
C9 C 0.0485(2) -0.0209(5) 0.1955(3)
C10 C -0.0043(2) -0.0151(7) 0.2057(3)
C11 C 0.1486(3) -0.0389(13) 0.2572(5)
C12 C 0.1943(4) -0.0120(22) 0.3417(6)
H1 H 0.0584 0.4072 0.1087
H2 H 0.0356 0.2504 0.1228
H3 H -0.0420 0.4335 0.0522
H4 H -0.0311 0.4073 -0.0357
H5 H 0.0944 0.2889 -0.0989
H6 H 0.1424 0.1966 -0.0129
H7 H 0.1902 0.3586 -0.0608
H8 H 0.1502 0.4882 -0.0465
H9 H 0.1985 0.3955 0.0400
H10 H -0.1513 0.0924 -0.0839
H11 H -0.2024 0.2174 -0.1283
H12 H -0.2199 0.0841 -0.0333
H13 H -0.1508 0.1232 0.0455
H14 H -0.2025 0.2494 0.0007
H15 H -0.0301 -0.1003 0.1744
H16 H -0.0282 0.0728 0.1752
H17 H 0.1487 0.0319 0.2121
H18 H 0.1544 -0.1372 0.2384
H19 H 0.2356 -0.0159 0.3417
H20 H 0.1874 0.0862 0.3593
H21 H 0.1931 -0.0834 0.3857
O1D O -0.0515(2) -0.1492(4) 0.0040(2)
C1D C -0.0613(2) -0.2602(5) -0.0259(3)
O3D O -0.0973(2) -0.3415(4) -0.0170(2)
C5D C -0.1249(3) -0.2944(6) 0.0338(4)
C6D C -0.1684(5) -0.3911(13) 0.0253(8)
H7D H -0.1902 -0.3586 0.0608
H8D H -0.1502 -0.4882 0.0465
H9D H -0.1985 -0.3955 -0.0400
H5D H -0.0944 -0.2889 0.0989
H6D H -0.1424 -0.1966 0.0129
C3D C -0.0342(2) -0.3207(5) -0.0765(3)
C4D C 0.0289(2) -0.3609(5) -0.0200(3)
C2D C 0.0692(2) -0.2463(6) 0.0040(3)
O2D O 0.0567(2) -0.1311(3) -0.0094(2)
C10A C 0.0043(2) -0.0151(7) 0.2943(3)
C9A C -0.0485(2) -0.0209(5) 0.3045(3)
O5A O -0.0490(2) -0.0120(4) 0.3729(2)
Mg1A Mg 0.00000 0.00000 0.50000
O6A O -0.0959(2) -0.0293(5) 0.2350(2)
C11A C -0.1486(3) -0.0389(13) 0.2428(5)
C12A C -0.1943(4) -0.0120(22) 0.1583(6)
H19A H -0.2356 -0.0159 0.1583
H20A H -0.1874 0.0862 0.1407
H21A H -0.1931 -0.0834 0.1143
H17A H -0.1487 0.0319 0.2879
H18A H -0.1544 -0.1372 0.2616
H15A H 0.0301 -0.1003 0.3256
H16A H 0.0282 0.0728 0.3248
O5D O -0.0490(2) 0.0120(4) -0.1271(2)
O4D O 0.1227(2) -0.2887(4) 0.0458(3)
C7D C 0.1668(3) -0.1846(8) 0.0712(6)
C8D C 0.1862(5) -0.1577(13) 0.0113(8)
H12D H 0.2199 -0.0841 0.0333
H13D H 0.1508 -0.1232 -0.0455
H14D H 0.2025 -0.2494 -0.0007
H10D H 0.1513 -0.0924 0.0839
H11D H 0.2024 -0.2174 0.1283
H3D H 0.0420 -0.4335 -0.0522
H4D H 0.0311 -0.4073 0.0357
H1D H -0.0584 -0.4072 -0.1087
H2D H -0.0356 -0.2504 -0.1228
Mg2 Mg 0.00000 0.4888(2) 0.25000
Cl1 Cl -0.03023(6) 0.63466(12) 0.32396(7)
Cl2 Cl -0.07531(10) 0.3470(2) 0.17438(12)
Cl1A Cl 0.03023(6) 0.63466(12) 0.17604(7)
Cl2A Cl 0.07531(10) 0.3470(2) 0.32562(12)
Cl3 Cl 0.19026(12) 0.6608(6) 0.7281(2)
Cl4 Cl 0.22450(13) 0.4068(5) 0.8008(2)
C13 C 0.1670(4) 0.5058(17) 0.7461(9)
H22 H 0.1401 0.4600 0.6867
H23 H 0.1418 0.5208 0.7794
loop_
_geom_bond_atom_site_label_1
_geom_bond_atom_site_label_2
_geom_bond_site_symmetry_1
_geom_bond_site_symmetry_2
Mg1 O1 1_555 1_555
Mg2 Cl1 1_555 1_555
Cl2 Mg2 1_555 1_555
Cl3 C13 1_555 1_555
Cl4 C13 1_555 1_555
O1 C1 1_555 1_555
O2 Mg1 1_555 1_555
O3 C1 1_555 1_555
O4 C2 1_555 1_555
O5 Mg1 1_555 1_555
O6 C9 1_555 1_555
C1 C3 1_555 1_555
C2 O2 1_555 1_555
C3 C4 1_555 1_555
C4 C2 1_555 1_555
C5 O3 1_555 1_555
C6 C5 1_555 1_555
C7 O4 1_555 1_555
C8 C7 1_555 1_555
C9 O5 1_555 1_555
C10 C9 1_555 1_555
C11 O6 1_555 1_555
C12 C11 1_555 1_555
C13 H22 1_555 1_555
H1 C3 1_555 1_555
H2 C3 1_555 1_555
H3 C4 1_555 1_555
H4 C4 1_555 1_555
H5 C5 1_555 1_555
H6 C5 1_555 1_555
H7 C6 1_555 1_555
H8 C6 1_555 1_555
H9 C6 1_555 1_555
H10 C7 1_555 1_555
H11 C7 1_555 1_555
H12 C8 1_555 1_555
H13 C8 1_555 1_555
H14 C8 1_555 1_555
H15 C10 1_555 1_555
H16 C10 1_555 1_555
H17 C11 1_555 1_555
H18 C11 1_555 1_555
H19 C12 1_555 1_555
H20 C12 1_555 1_555
H21 C12 1_555 1_555
H23 C13 1_555 1_555
O1D Mg1 1_555 1_555
C1D O1D 1_555 1_555
O3D C1D 1_555 1_555
C5D O3D 1_555 1_555
C6D C5D 1_555 1_555
H7D C6D 1_555 1_555
H8D C6D 1_555 1_555
H9D C6D 1_555 1_555
H5D C5D 1_555 1_555
H6D C5D 1_555 1_555
C3D C1D 1_555 1_555
C4D C3D 1_555 1_555
C2D C4D 1_555 1_555
O2D Mg1 1_555 1_555
C10A C10 1_555 1_555
C9A C10A 1_555 1_555
O5A C9A 1_555 1_555
Mg1A O5A 1_555 1_555
O6A C9A 1_555 1_555
C11A O6A 1_555 1_555
C12A C11A 1_555 1_555
H19A C12A 1_555 1_555
H20A C12A 1_555 1_555
H21A C12A 1_555 1_555
H17A C11A 1_555 1_555
H18A C11A 1_555 1_555
H15A C10A 1_555 1_555
H16A C10A 1_555 1_555
O5D Mg1 1_555 1_555
O4D C2D 1_555 1_555
C7D O4D 1_555 1_555
C8D C7D 1_555 1_555
H12D C8D 1_555 1_555
H13D C8D 1_555 1_555
H14D C8D 1_555 1_555
H10D C7D 1_555 1_555
H11D C7D 1_555 1_555
H3D C4D 1_555 1_555
H4D C4D 1_555 1_555
H1D C3D 1_555 1_555
H2D C3D 1_555 1_555
Cl1A Mg2 1_555 1_555
Cl2A Mg2 1_555 1_555
C2D O2D 1_555 1_555

#END
