
#######################################################################
#
#                 Cambridge Crystallographic Data Centre
#                                CCDC 
#
#######################################################################
#
# If this CIF has been generated from an entry in the Cambridge 
# Structural Database, then it will include bibliographic, chemical, 
# crystal, experimental, refinement or atomic coordinate data resulting 
# from the CCDC's data processing and validation procedures.
#
#######################################################################

data_ZURREJ
_symmetry_cell_setting           monoclinic
_symmetry_space_group_name_H-M   'P 21/m'
_symmetry_Int_Tables_number      11
_space_group_name_Hall           '-P 2yb'
loop_
_symmetry_equiv_pos_site_id
_symmetry_equiv_pos_as_xyz
1 x,y,z
2 -x,1/2+y,-z
3 -x,-y,-z
4 x,1/2-y,z
_cell_length_a                   8.505(1)
_cell_length_b                   17.737(1)
_cell_length_c                   10.106(1)
_cell_angle_alpha                90
_cell_angle_beta                 102.64(1)
_cell_angle_gamma                90
_cell_volume                     1487.57
loop_
_atom_site_label
_atom_site_type_symbol
_atom_site_fract_x
_atom_site_fract_y
_atom_site_fract_z
Cd1 Cd 0.00000 0.00000 0.00000
Ni1 Ni 0.33512(9) 0.25000 0.04288(8)
N1 N 0.0936(5) 0.3742(2) 0.0328(4)
N2 N 0.5862(5) 0.3717(3) 0.0593(5)
N3 N 0.2330(4) -0.0532(2) -0.8683(3)
N4 N 0.1093(5) -0.0202(2) 0.8049(4)
C1 C 0.1825(5) 0.3256(2) 0.0373(4)
C2 C 0.4910(5) 0.3252(3) 0.0512(5)
C3 C 0.3574(5) -0.0072(3) -0.7721(4)
C4 C 0.3040(5) 0.0074(3) -0.6416(4)
C5 C 0.2756(7) 0.0795(3) -0.5995(5)
C6 C 0.2300(7) 0.0911(3) -0.4761(5)
C7 C 0.2134(5) 0.0307(3) -0.3938(4)
C8 C 0.2432(7) -0.0426(3) -0.4353(5)
C9 C 0.2905(7) -0.0534(3) -0.5580(5)
C10 C 0.1662(7) 0.0468(3) 0.7408(5)
H1 H 0.29099 -0.07731 -0.93332
H2 H 0.19613 -0.09300 -0.81191
H3 H 0.47219 -0.03819 -0.74959
H4 H 0.37410 0.04701 -0.82006
H5 H 0.28872 0.12724 -0.66262
H6 H 0.20761 0.14765 -0.44497
H7 H 0.22952 -0.09037 -0.37254
H8 H 0.31691 -0.10957 -0.58813
H9 H 0.06894 0.08900 0.72252
H10 H 0.27200 0.07001 0.81168
H11 H 0.02393 -0.04503 -0.26527
H12 H 0.20319 -0.05506 -0.16796
Cd1A Cd 0.00000 0.50000 0.00000
C1C C 0.1825(5) 0.1744(2) 0.0373(4)
N1C N 0.0936(5) 0.1258(2) 0.0328(4)
Cd1_2 Cd 0.00000 0.00000 -1.00000
N1A N -0.0936(5) -0.1258(2) -0.0328(4)
N3_2 N 0.2330(4) -0.0532(2) 0.1317(3)
C3_2 C 0.3574(5) -0.0072(3) 0.2279(4)
C4_2 C 0.3040(5) 0.0074(3) 0.3584(4)
C5_2 C 0.2756(7) 0.0795(3) 0.4005(5)
C6_2 C 0.2300(7) 0.0911(3) 0.5239(5)
C7_2 C 0.2134(5) 0.0307(3) 0.6062(4)
C8_2 C 0.2432(7) -0.0426(3) 0.5647(5)
C9_2 C 0.2905(7) -0.0534(3) 0.4420(5)
H8_2 H 0.31691 -0.10957 0.41187
H7_2 H 0.22952 -0.09037 0.62746
Cd1_3 Cd 0.00000 0.00000 1.00000
N4B N -0.1093(5) 0.0202(2) 0.1951(4)
N3B N -0.2330(4) 0.0532(2) -0.1317(3)
H1B H -0.29099 0.07731 -0.06668
H2B H -0.19613 0.09300 -0.18809
N4_2 N 0.1093(5) -0.0202(2) -0.1951(4)
C10_2 C 0.1662(7) 0.0468(3) -0.2592(5)
H11B H -0.02393 0.04503 0.26527
H12B H -0.20319 0.05506 0.16796
H11_2 H 0.02393 -0.04503 0.73473
H12_2 H 0.20319 -0.05506 0.83204
H6_2 H 0.20761 0.14765 0.55503
H5_2 H 0.28872 0.12724 0.33738
H3_2 H 0.47219 -0.03819 0.25041
H4_2 H 0.37410 0.04701 0.17994
H1_2 H 0.29099 -0.07731 0.06668
H2_2 H 0.19613 -0.09300 0.18809
C2C C 0.4910(5) 0.1748(3) 0.0512(5)
N2C N 0.5862(5) 0.1283(3) 0.0593(5)
H9_2 H 0.06894 0.08900 -0.27748
H10_2 H 0.27200 0.07001 -0.18832
N5 N 0.9927(11) 0.25000 -0.4705(10)
C11 C 0.9680(15) 0.25000 -0.6048(13)
C12 C 0.8112(16) 0.25000 -0.6904(11)
C13 C 0.6798(15) 0.25000 -0.6322(10)
C14 C 0.5727(15) 0.25000 -0.4227(12)
C15 C 0.5969(18) 0.25000 -0.2828(12)
C16 C 0.7597(22) 0.25000 -0.2078(11)
C17 C 0.8916(17) 0.25000 -0.2689(10)
C18 C 0.8619(13) 0.25000 -0.4113(9)
C19 C 0.7026(12) 0.25000 -0.4913(9)
H13 H 1.07115 0.25000 -0.65094
H14 H 0.79585 0.25000 -0.79936
H15 H 0.55950 0.25000 -0.69507
H16 H 0.45067 0.25000 -0.4824
H17 H 0.49700 0.25000 -0.23266
H18 H 0.78188 0.25000 -0.09837
H19 H 1.01327 0.25000 -0.20844
loop_
_geom_bond_atom_site_label_1
_geom_bond_atom_site_label_2
_geom_bond_site_symmetry_1
_geom_bond_site_symmetry_2
Cd1 N1C 1_555 1_555
Ni1 C1 1_555 1_555
N1 C1 1_555 1_555
N2 C2 1_555 1_555
N3 C3 1_555 1_555
N4 C10 1_555 1_555
C2 Ni1 1_555 1_555
C3 C4 1_555 1_555
C4 C5 1_555 1_555
C5 C6 1_555 1_555
C6 C7 1_555 1_555
C7 C8 1_555 1_555
C8 C9 1_555 1_555
C9 C4 1_555 1_555
C10 H9 1_555 1_555
N5 C11 1_555 1_555
C11 C12 1_555 1_555
C12 C13 1_555 1_555
C13 C19 1_555 1_555
C14 C15 1_555 1_555
C15 C16 1_555 1_555
C16 C17 1_555 1_555
C17 C18 1_555 1_555
C18 N5 1_555 1_555
C19 C14 1_555 1_555
H1 N3 1_555 1_555
H2 N3 1_555 1_555
H3 C3 1_555 1_555
H4 C3 1_555 1_555
H5 C5 1_555 1_555
H6 C6 1_555 1_555
H7 C8 1_555 1_555
H8 C9 1_555 1_555
H10 C10 1_555 1_555
H11 N4_2 1_555 1_555
H12 N4_2 1_555 1_555
H13 C11 1_555 1_555
H14 C12 1_555 1_555
H15 C13 1_555 1_555
H16 C14 1_555 1_555
H17 C15 1_555 1_555
H18 C16 1_555 1_555
H19 C17 1_555 1_555
Cd1A N1 1_555 1_555
C1C Ni1 1_555 1_555
N1C C1C 1_555 1_555
Cd1_2 N3 1_555 1_555
N1A Cd1 1_555 1_555
N3_2 Cd1 1_555 1_555
C3_2 N3_2 1_555 1_555
C4_2 C3_2 1_555 1_555
C5_2 C4_2 1_555 1_555
C6_2 C5_2 1_555 1_555
C7_2 C10 1_555 1_555
C8_2 C7_2 1_555 1_555
C9_2 C4_2 1_555 1_555
H8_2 C9_2 1_555 1_555
H7_2 C8_2 1_555 1_555
Cd1_3 N4 1_555 1_555
N4B Cd1 1_555 1_555
N3B Cd1 1_555 1_555
H1B N3B 1_555 1_555
H2B N3B 1_555 1_555
N4_2 Cd1 1_555 1_555
C10_2 C7 1_555 1_555
H11B N4B 1_555 1_555
H12B N4B 1_555 1_555
H11_2 N4 1_555 1_555
H12_2 N4 1_555 1_555
H6_2 C6_2 1_555 1_555
H5_2 C5_2 1_555 1_555
H3_2 C3_2 1_555 1_555
H4_2 C3_2 1_555 1_555
H1_2 N3_2 1_555 1_555
H2_2 N3_2 1_555 1_555
C2C Ni1 1_555 1_555
N2C C2C 1_555 1_555
H9_2 C10_2 1_555 1_555
H10_2 C10_2 1_555 1_555
C18 C19 1_555 1_555
C6_2 C7_2 1_555 1_555
C8_2 C9_2 1_555 1_555
N4_2 C10_2 1_555 1_555

#END
