
#######################################################################
#
#                 Cambridge Crystallographic Data Centre
#                                CCDC 
#
#######################################################################
#
# If this CIF has been generated from an entry in the Cambridge 
# Structural Database, then it will include bibliographic, chemical, 
# crystal, experimental, refinement or atomic coordinate data resulting 
# from the CCDC's data processing and validation procedures.
#
#######################################################################

data_ZURRAF
_symmetry_cell_setting           monoclinic
_symmetry_space_group_name_H-M   'P 21/m'
_symmetry_Int_Tables_number      11
_space_group_name_Hall           '-P 2yb'
loop_
_symmetry_equiv_pos_site_id
_symmetry_equiv_pos_as_xyz
1 x,y,z
2 -x,1/2+y,-z
3 -x,-y,-z
4 x,1/2-y,z
_cell_length_a                   8.615(3)
_cell_length_b                   17.568(2)
_cell_length_c                   9.950(2)
_cell_angle_alpha                90
_cell_angle_beta                 105.30(2)
_cell_angle_gamma                90
_cell_volume                     1452.54
loop_
_atom_site_label
_atom_site_type_symbol
_atom_site_fract_x
_atom_site_fract_y
_atom_site_fract_z
Cd1 Cd 0.00000 0.00000 0.00000
Ni1 Ni 0.3493(1) 0.25000 0.0542(1)
N1 N 0.1032(7) 0.3723(3) 0.0320(6)
N2 N 0.6077(8) 0.3680(4) 0.0810(7)
N3 N 0.2404(6) -0.0541(3) -0.8693(5)
N4 N 0.0973(6) -0.0179(3) 0.8002(5)
C1 C 0.1952(7) 0.3260(3) 0.0406(6)
C2 C 0.5070(8) 0.3246(4) 0.0699(7)
C3 C 0.3638(7) -0.0086(4) -0.7675(6)
C4 C 0.3085(6) 0.0062(4) -0.6370(6)
C5 C 0.2752(8) 0.0811(4) -0.5996(7)
C6 C 0.2249(8) 0.0933(4) -0.4780(7)
C7 C 0.2060(7) 0.0312(4) -0.3949(6)
C8 C 0.2388(8) -0.0414(4) -0.4329(7)
C9 C 0.2900(8) -0.0542(4) -0.5534(7)
C10 C 0.1582(9) 0.0474(4) 0.7392(7)
H1 H 0.29541 -0.07518 -0.93798
H2 H 0.20925 -0.09680 -0.81519
H3 H 0.47803 -0.04020 -0.73948
H4 H 0.38158 0.04611 -0.81519
H5 H 0.28832 0.12865 -0.66451
H6 H 0.20085 0.15038 -0.44844
H7 H 0.22474 -0.08913 -0.36866
H8 H 0.31515 -0.11148 -0.58123
H9 H 0.06384 0.09127 0.71670
H10 H 0.26479 0.06919 0.81651
H11 H 0.00675 -0.03989 -0.27414
H12 H 0.18700 -0.05574 -0.17387
Cd1A Cd 0.00000 0.50000 0.00000
C1C C 0.1952(7) 0.1740(3) 0.0406(6)
N1C N 0.1032(7) 0.1277(3) 0.0320(6)
Cd1_2 Cd 0.00000 0.00000 -1.00000
N1A N -0.1032(7) -0.1277(3) -0.0320(6)
N3_2 N 0.2404(6) -0.0541(3) 0.1307(5)
C3_2 C 0.3638(7) -0.0086(4) 0.2325(6)
C4_2 C 0.3085(6) 0.0062(4) 0.3630(6)
C5_2 C 0.2752(8) 0.0811(4) 0.4004(7)
C6_2 C 0.2249(8) 0.0933(4) 0.5220(7)
C7_2 C 0.2060(7) 0.0312(4) 0.6051(6)
C8_2 C 0.2388(8) -0.0414(4) 0.5671(7)
C9_2 C 0.2900(8) -0.0542(4) 0.4466(7)
H8_2 H 0.31515 -0.11148 0.41877
H7_2 H 0.22474 -0.08913 0.63134
Cd1_3 Cd 0.00000 0.00000 1.00000
N4B N -0.0973(6) 0.0179(3) 0.1998(5)
N3B N -0.2404(6) 0.0541(3) -0.1307(5)
H1B H -0.29541 0.07518 -0.06202
H2B H -0.20925 0.09680 -0.18481
N4_2 N 0.0973(6) -0.0179(3) -0.1998(5)
C10_2 C 0.1582(9) 0.0474(4) -0.2608(7)
H11B H -0.00675 0.03989 0.27414
H12B H -0.18700 0.05574 0.17387
H11_2 H 0.00675 -0.03989 0.72586
H12_2 H 0.18700 -0.05574 0.82613
H6_2 H 0.20085 0.15038 0.55156
H5_2 H 0.28832 0.12865 0.33549
H3_2 H 0.47803 -0.04020 0.26052
H4_2 H 0.38158 0.04611 0.18481
H1_2 H 0.29541 -0.07518 0.06202
H2_2 H 0.20925 -0.09680 0.18481
C2C C 0.5070(8) 0.1754(4) 0.0699(7)
N2C N 0.6077(8) 0.1320(4) 0.0810(7)
H9_2 H 0.06384 0.09127 -0.28330
H10_2 H 0.26479 0.06919 -0.18349
O1 O 0.9717(10) 0.25000 -0.4894(11)
C11 C 0.8427(17) 0.25000 -0.4385(14)
C12 C 0.8662(21) 0.25000 -0.2911(14)
C13 C 0.7368(28) 0.25000 -0.2366(18)
C14 C 0.5821(23) 0.25000 -0.3198(21)
C15 C 0.5564(17) 0.25000 -0.4685(18)
C16 C 0.6866(15) 0.25000 -0.5277(12)
H13 H 0.93743 0.25000 -0.58940
H14 H 0.98658 0.25000 -0.22274
H15 H 0.75664 0.25000 -0.12480
H16 H 0.48131 0.25000 -0.27437
H17 H 0.43513 0.25000 -0.53524
H18 H 0.66743 0.25000 -0.63944
O2 O 0.9111(13) 0.25000 -0.7724(12)
loop_
_geom_bond_atom_site_label_1
_geom_bond_atom_site_label_2
_geom_bond_site_symmetry_1
_geom_bond_site_symmetry_2
Cd1 N1C 1_555 1_555
Ni1 C1 1_555 1_555
N1 C1 1_555 1_555
N2 C2 1_555 1_555
N3 C3 1_555 1_555
N4 C10 1_555 1_555
C2 Ni1 1_555 1_555
C3 C4 1_555 1_555
C4 C5 1_555 1_555
C5 C6 1_555 1_555
C6 C7 1_555 1_555
C7 C8 1_555 1_555
C8 C9 1_555 1_555
C9 C4 1_555 1_555
C10 H9 1_555 1_555
O1 C11 1_555 1_555
C11 C12 1_555 1_555
C12 C13 1_555 1_555
C13 C14 1_555 1_555
C14 C15 1_555 1_555
C15 C16 1_555 1_555
C16 C11 1_555 1_555
H1 N3 1_555 1_555
H2 N3 1_555 1_555
H3 C3 1_555 1_555
H4 C3 1_555 1_555
H5 C5 1_555 1_555
H6 C6 1_555 1_555
H7 C8 1_555 1_555
H8 C9 1_555 1_555
H10 C10 1_555 1_555
H11 N4_2 1_555 1_555
H12 N4_2 1_555 1_555
H13 O1 1_555 1_555
H14 C12 1_555 1_555
H15 C13 1_555 1_555
H16 C14 1_555 1_555
H17 C15 1_555 1_555
H18 C16 1_555 1_555
Cd1A N1 1_555 1_555
C1C Ni1 1_555 1_555
N1C C1C 1_555 1_555
Cd1_2 N3 1_555 1_555
N1A Cd1 1_555 1_555
N3_2 Cd1 1_555 1_555
C3_2 N3_2 1_555 1_555
C4_2 C3_2 1_555 1_555
C5_2 C4_2 1_555 1_555
C6_2 C5_2 1_555 1_555
C7_2 C10 1_555 1_555
C8_2 C7_2 1_555 1_555
C9_2 C4_2 1_555 1_555
H8_2 C9_2 1_555 1_555
H7_2 C8_2 1_555 1_555
Cd1_3 N4 1_555 1_555
N4B Cd1 1_555 1_555
N3B Cd1 1_555 1_555
H1B N3B 1_555 1_555
H2B N3B 1_555 1_555
N4_2 Cd1 1_555 1_555
C10_2 C7 1_555 1_555
H11B N4B 1_555 1_555
H12B N4B 1_555 1_555
H11_2 N4 1_555 1_555
H12_2 N4 1_555 1_555
H6_2 C6_2 1_555 1_555
H5_2 C5_2 1_555 1_555
H3_2 C3_2 1_555 1_555
H4_2 C3_2 1_555 1_555
H1_2 N3_2 1_555 1_555
H2_2 N3_2 1_555 1_555
C2C Ni1 1_555 1_555
N2C C2C 1_555 1_555
H9_2 C10_2 1_555 1_555
H10_2 C10_2 1_555 1_555
C6_2 C7_2 1_555 1_555
C8_2 C9_2 1_555 1_555
N4_2 C10_2 1_555 1_555

#END
