
#######################################################################
#
#                 Cambridge Crystallographic Data Centre
#                                CCDC 
#
#######################################################################
#
# If this CIF has been generated from an entry in the Cambridge 
# Structural Database, then it will include bibliographic, chemical, 
# crystal, experimental, refinement or atomic coordinate data resulting 
# from the CCDC's data processing and validation procedures.
#
#######################################################################

data_ZURTAJ
_symmetry_cell_setting           triclinic
_symmetry_space_group_name_H-M   'P -1'
_symmetry_Int_Tables_number      2
_space_group_name_Hall           '-P 1'
loop_
_symmetry_equiv_pos_site_id
_symmetry_equiv_pos_as_xyz
1 x,y,z
2 -x,-y,-z
_cell_length_a                   8.8130(4)
_cell_length_b                   11.2541(6)
_cell_length_c                   12.1874(6)
_cell_angle_alpha                110.8510(10)
_cell_angle_beta                 100.6150(10)
_cell_angle_gamma                96.6790(10)
_cell_volume                     1088.3
loop_
_atom_site_label
_atom_site_type_symbol
_atom_site_fract_x
_atom_site_fract_y
_atom_site_fract_z
Cu1 Cu 0.48089(3) 0.50053(2) 0.21604(2)
N1 N 0.6447(2) 0.47532(19) 0.35046(19)
O1 O 0.8964(2) 0.20198(18) 0.18072(16)
C1 C 0.6623(3) 0.5467(2) 0.4690(2)
H1 H 0.6085 0.6146 0.4906
N2 N 0.9012(3) 0.2443(2) 0.37767(19)
H2 H 0.9327 0.2189 0.4351
O2 O 1.1488(3) -0.1480(2) 0.25439(16)
C2 C 0.7558(3) 0.5232(3) 0.5589(2)
H3 H 0.7644 0.5741 0.6397
O3 O 0.4886(2) 0.33245(16) 0.10626(16)
N3 N 1.0868(3) -0.2287(2) 0.05067(19)
H4 H 1.0410 -0.2147 -0.0110
C3 C 0.8375(3) 0.4231(3) 0.5285(2)
H5 H 0.9012 0.4056 0.5884
C4 C 0.8225(3) 0.3490(2) 0.4065(2)
N4 N 1.3220(2) -0.47074(19) 0.08327(18)
O4 O 0.2812(3) 0.2591(2) 0.1578(3)
O5 O 0.4659(2) 0.66283(17) 0.33263(17)
C5 C 0.7258(3) 0.3786(2) 0.3204(2)
H6 H 0.7164 0.3300 0.2389
O6 O 0.6812(3) 0.7476(2) 0.2979(2)
C6 C 0.9333(3) 0.1787(2) 0.2702(2)
C7 C 1.0236(5) 0.0723(4) 0.2731(3)
H7 H 1.1336 0.1118 0.3114
H8 H 0.9845 0.0317 0.3232
C8 C 1.0137(5) -0.0268(3) 0.1569(3)
H9 H 1.0631 0.0124 0.1098
H10 H 0.9034 -0.0598 0.1150
C9 C 1.0889(3) -0.1398(2) 0.1601(2)
C10 C 1.1506(3) -0.3417(2) 0.0256(2)
C11 C 1.1050(3) -0.4344(2) -0.0926(2)
H11 H 1.0304 -0.4237 -0.1513
C12 C 1.1729(3) -0.5420(2) -0.1205(2)
H12 H 1.1455 -0.6044 -0.1990
C13 C 1.2815(3) -0.5573(2) -0.0318(2)
H13 H 1.3280 -0.6297 -0.0523
C14 C 1.2580(3) -0.3642(2) 0.1105(2)
H14 H 1.2871 -0.3031 0.1897
C15 C 0.3866(3) 0.2401(2) 0.1051(2)
C16 C 0.4068(3) 0.1027(2) 0.0356(2)
H15 H 0.3016 0.0496 -0.0078
C17 C 0.5033(3) 0.0940(2) -0.0575(2)
H16 H 0.6071 0.1481 -0.0172
H17 H 0.4528 0.1268 -0.1155
C18 C 0.5197(3) -0.0453(2) -0.1244(2)
H18 H 0.5853 -0.0469 -0.1806
H19 H 0.4168 -0.0979 -0.1708
C19 C 0.5770(3) 0.7579(2) 0.3532(2)
C20 C 0.5749(3) 0.8874(2) 0.4503(2)
H20 H 0.683(3) 0.921(3) 0.507(2)
C21 C 0.4467(3) 0.8807(2) 0.5173(2)
H21 H 0.4647 0.8227 0.5591
H22 H 0.3453 0.8453 0.4593
C22 C 0.4430(4) 1.0137(2) 0.6087(2)
H23 H 0.548(3) 1.051(3) 0.674(3)
H24 H 0.355(3) 1.000(3) 0.643(3)
O3A O 0.5114(2) -0.33245(16) -0.10626(16)
O4A O 0.7188(3) -0.2591(2) -0.1578(3)
C15A C 0.6134(3) -0.2401(2) -0.1051(2)
C16A C 0.5932(3) -0.1027(2) -0.0356(2)
H15A H 0.6984 -0.0496 0.0078
C17A C 0.4967(3) -0.0940(2) 0.0575(2)
H16A H 0.3929 -0.1481 0.0172
H17A H 0.5472 -0.1268 0.1155
C18A C 0.4803(3) 0.0453(2) 0.1244(2)
H18A H 0.4147 0.0469 0.1806
H19A H 0.5832 0.0979 0.1708
O5A O 0.5341(2) 1.33717(17) 0.66737(17)
O6A O 0.3188(3) 1.2524(2) 0.7021(2)
C19A C 0.4230(3) 1.2421(2) 0.6468(2)
C20A C 0.4251(3) 1.1126(2) 0.5497(2)
H20A H 0.317(3) 1.079(3) 0.493(2)
C21A C 0.5533(3) 1.1193(2) 0.4827(2)
H21A H 0.5353 1.1773 0.4409
H22A H 0.6547 1.1547 0.5407
C22A C 0.5570(4) 0.9863(2) 0.3913(2)
H23A H 0.452(3) 0.949(3) 0.326(3)
H24A H 0.645(3) 1.000(3) 0.357(3)
Cu1A Cu 0.51911(3) -0.50053(2) -0.21604(2)
N1A N 0.3553(2) -0.47532(19) -0.35046(19)
O1A O 0.1036(2) -0.20198(18) -0.18072(16)
C1A C 0.3377(3) -0.5467(2) -0.4690(2)
H1A H 0.3915 -0.6146 -0.4906
N2A N 0.0988(3) -0.2443(2) -0.37767(19)
H2A H 0.0673 -0.2189 -0.4351
O2A O -0.1488(3) 0.1480(2) -0.25439(16)
C2A C 0.2442(3) -0.5232(3) -0.5589(2)
H3A H 0.2356 -0.5741 -0.6397
N3A N -0.0868(3) 0.2287(2) -0.05067(19)
H4A H -0.0410 0.2147 0.0110
C3A C 0.1625(3) -0.4231(3) -0.5285(2)
H5A H 0.0988 -0.4056 -0.5884
C4A C 0.1775(3) -0.3490(2) -0.4065(2)
N4A N -0.3220(2) 0.47074(19) -0.08327(18)
C5A C 0.2742(3) -0.3786(2) -0.3204(2)
H6A H 0.2836 -0.3300 -0.2389
C6A C 0.0667(3) -0.1787(2) -0.2702(2)
C7A C -0.0236(5) -0.0723(4) -0.2731(3)
H7A H -0.1336 -0.1118 -0.3114
H8A H 0.0155 -0.0317 -0.3232
C8A C -0.0137(5) 0.0268(3) -0.1569(3)
H9A H -0.0631 -0.0124 -0.1098
H10A H 0.0966 0.0598 -0.1150
C9A C -0.0889(3) 0.1398(2) -0.1601(2)
C10A C -0.1506(3) 0.3417(2) -0.0256(2)
C11A C -0.1050(3) 0.4344(2) 0.0926(2)
H11A H -0.0304 0.4237 0.1513
C12A C -0.1729(3) 0.5420(2) 0.1205(2)
H12A H -0.1455 0.6044 0.1990
C13A C -0.2815(3) 0.5573(2) 0.0318(2)
H13A H -0.3280 0.6297 0.0523
C14A C -0.2580(3) 0.3642(2) -0.1105(2)
H14A H -0.2871 0.3031 -0.1897
Cu1_2 Cu 1.48089(3) -0.49947(2) 0.21604(2)
Cu1A_2 Cu -0.48089(3) 0.49947(2) -0.21604(2)
Cu1A_3 Cu 0.51911(3) 1.49947(2) 0.78396(2)
N4_2 N 0.3220(2) 0.52926(19) 0.08327(18)
N4A_2 N 0.6780(2) -0.52926(19) -0.08327(18)
O5A_2 O 0.5341(2) -0.66283(17) -0.33263(17)
O7 O 1.0109(4) 0.1747(4) 0.5715(3)
H25 H 0.966(4) 0.157(4) 0.605(3)
H26 H 1.090(4) 0.183(3) 0.597(3)
loop_
_geom_bond_atom_site_label_1
_geom_bond_atom_site_label_2
_geom_bond_site_symmetry_1
_geom_bond_site_symmetry_2
Cu1 N1 1_555 1_555
N1 C1 1_555 1_555
O1 C6 1_555 1_555
C1 H1 1_555 1_555
N2 H2 1_555 1_555
O2 C9 1_555 1_555
C2 C1 1_555 1_555
H3 C2 1_555 1_555
O3 Cu1 1_555 1_555
N3 H4 1_555 1_555
C3 C2 1_555 1_555
H5 C3 1_555 1_555
C4 N2 1_555 1_555
N4 C13 1_555 1_555
O4 C15 1_555 1_555
O5 Cu1 1_555 1_555
C5 N1 1_555 1_555
H6 C5 1_555 1_555
O6 C19 1_555 1_555
C6 N2 1_555 1_555
C7 C6 1_555 1_555
H7 C7 1_555 1_555
H8 C7 1_555 1_555
C8 C7 1_555 1_555
H9 C8 1_555 1_555
H10 C8 1_555 1_555
C9 N3 1_555 1_555
C10 N3 1_555 1_555
C11 C10 1_555 1_555
H11 C11 1_555 1_555
C12 C11 1_555 1_555
H12 C12 1_555 1_555
C13 C12 1_555 1_555
H13 C13 1_555 1_555
C14 N4 1_555 1_555
H14 C14 1_555 1_555
C15 O3 1_555 1_555
C16 C15 1_555 1_555
H15 C16 1_555 1_555
C17 C16 1_555 1_555
H16 C17 1_555 1_555
H17 C17 1_555 1_555
C18 C17 1_555 1_555
H18 C18 1_555 1_555
H19 C18 1_555 1_555
C19 O5 1_555 1_555
C20 C19 1_555 1_555
H20 C20 1_555 1_555
C21 C20 1_555 1_555
H21 C21 1_555 1_555
H22 C21 1_555 1_555
C22 C21 1_555 1_555
H23 C22 1_555 1_555
H24 C22 1_555 1_555
O7 H25 1_555 1_555
H26 O7 1_555 1_555
O3A C15A 1_555 1_555
O4A C15A 1_555 1_555
C15A C16A 1_555 1_555
C16A C18 1_555 1_555
H15A C16A 1_555 1_555
C17A C16A 1_555 1_555
H16A C17A 1_555 1_555
H17A C17A 1_555 1_555
C18A C16 1_555 1_555
H18A C18A 1_555 1_555
H19A C18A 1_555 1_555
O5A C19A 1_555 1_555
O6A C19A 1_555 1_555
C19A C20A 1_555 1_555
C20A C22 1_555 1_555
H20A C20A 1_555 1_555
C21A C20A 1_555 1_555
H21A C21A 1_555 1_555
H22A C21A 1_555 1_555
C22A C20 1_555 1_555
H23A C22A 1_555 1_555
H24A C22A 1_555 1_555
Cu1A O3A 1_555 1_555
N1A Cu1A 1_555 1_555
O1A C6A 1_555 1_555
C1A N1A 1_555 1_555
H1A C1A 1_555 1_555
N2A H2A 1_555 1_555
O2A C9A 1_555 1_555
C2A C1A 1_555 1_555
H3A C2A 1_555 1_555
N3A H4A 1_555 1_555
C3A C2A 1_555 1_555
H5A C3A 1_555 1_555
C4A N2A 1_555 1_555
N4A C13A 1_555 1_555
C5A N1A 1_555 1_555
H6A C5A 1_555 1_555
C6A N2A 1_555 1_555
C7A C6A 1_555 1_555
H7A C7A 1_555 1_555
H8A C7A 1_555 1_555
C8A C7A 1_555 1_555
H9A C8A 1_555 1_555
H10A C8A 1_555 1_555
C9A N3A 1_555 1_555
C10A N3A 1_555 1_555
C11A C10A 1_555 1_555
H11A C11A 1_555 1_555
C12A C11A 1_555 1_555
H12A C12A 1_555 1_555
C13A C12A 1_555 1_555
H13A C13A 1_555 1_555
C14A N4A 1_555 1_555
H14A C14A 1_555 1_555
Cu1_2 N4 1_555 1_555
Cu1A_2 N4A 1_555 1_555
Cu1A_3 O5A 1_555 1_555
N4_2 Cu1 1_555 1_555
N4A_2 Cu1A 1_555 1_555
O5A_2 Cu1A 1_555 1_555
C3 C4 1_555 1_555
C4 C5 1_555 1_555
C8 C9 1_555 1_555
C10 C14 1_555 1_555
C17A C18A 1_555 1_555
C21A C22A 1_555 1_555
C3A C4A 1_555 1_555
C4A C5A 1_555 1_555
C8A C9A 1_555 1_555
C10A C14A 1_555 1_555

#END
