
#######################################################################
#
#                 Cambridge Crystallographic Data Centre
#                                CCDC 
#
#######################################################################
#
# If this CIF has been generated from an entry in the Cambridge 
# Structural Database, then it will include bibliographic, chemical, 
# crystal, experimental, refinement or atomic coordinate data resulting 
# from the CCDC's data processing and validation procedures.
#
#######################################################################

data_ZUSBOG
_symmetry_cell_setting           monoclinic
_symmetry_space_group_name_H-M   'P 21/c'
_symmetry_Int_Tables_number      14
_space_group_name_Hall           '-P 2ybc'
loop_
_symmetry_equiv_pos_site_id
_symmetry_equiv_pos_as_xyz
1 x,y,z
2 -x,1/2+y,1/2-z
3 -x,-y,-z
4 x,1/2-y,1/2+z
_cell_length_a                   14.7367(5)
_cell_length_b                   9.5763(4)
_cell_length_c                   9.8920(3)
_cell_angle_alpha                90
_cell_angle_beta                 101.474(3)
_cell_angle_gamma                90
_cell_volume                     1368.09
loop_
_atom_site_label
_atom_site_type_symbol
_atom_site_fract_x
_atom_site_fract_y
_atom_site_fract_z
Zn1 Zn 0.08728(3) 0.07361(5) 0.63678(5)
C1 C 0.2678(3) 0.0964(6) 0.7274(6)
C2 C 0.3633(3) 0.0731(6) 0.8190(5)
C3 C 0.3726(3) -0.0086(6) 0.9316(5)
H1 H 0.3204 -0.0500 0.9538
C4 C 0.4612(3) -0.0327(6) 1.0175(5)
C5 C 0.4407(4) 0.1404(7) 0.7849(6)
H2 H 0.4335 0.1991 0.7085
C6 C 0.0055(3) -0.1674(5) 0.7676(5)
H3 H 0.0426 -0.1506 0.8537
C7 C -0.0923(3) -0.2565(5) 0.6086(4)
H4 H -0.1376 -0.3150 0.5595
N1 N 0.0062(3) -0.0902(4) 0.6596(4)
N2 N -0.0587(3) -0.1477(4) 0.5545(4)
N3 N -0.0545(3) -0.2738(4) 0.7417(4)
O1 O 0.2061(2) 0.0094(4) 0.7444(4)
O2 O 0.2550(3) 0.1942(5) 0.6480(4)
C8 C 0.5262(4) 0.1189(7) 0.8645(6)
H5 H 0.5774 0.1619 0.8407
C1B C 0.7322(3) -0.0964(6) 1.2726(6)
C2B C 0.6367(3) -0.0731(6) 1.1810(5)
C3B C 0.6274(3) 0.0086(6) 1.0684(5)
H1B H 0.6796 0.0500 1.0462
C4B C 0.5388(3) 0.0327(6) 0.9825(5)
C5B C 0.5593(4) -0.1404(7) 1.2151(6)
H2B H 0.5665 -0.1991 1.2915
O1B O 0.7939(2) -0.0094(4) 1.2556(4)
O2B O 0.7450(3) -0.1942(5) 1.3520(4)
C8B C 0.4738(4) -0.1189(7) 1.1355(6)
H5B H 0.4226 -0.1619 1.1593
Zn1B Zn -0.08728(3) -0.07361(5) 0.36322(5)
C6B C -0.0055(3) 0.1674(5) 0.2324(5)
H3B H -0.0426 0.1506 0.1463
C7B C 0.0923(3) 0.2565(5) 0.3914(4)
H4B H 0.1376 0.3150 0.4405
N1B N -0.0062(3) 0.0902(4) 0.3404(4)
N2B N 0.0587(3) 0.1477(4) 0.4455(4)
N3B N 0.0545(3) 0.2738(4) 0.2583(4)
Zn1A Zn -0.08728(3) -0.42639(5) 0.86322(5)
Zn1B_2 Zn 0.91272(3) -0.07361(5) 1.36322(5)
Zn1C Zn 0.08728(3) 0.42639(5) 0.13678(5)
N3A N 0.0545(3) 0.2262(4) 0.7583(4)
N3C N -0.0545(3) -0.2262(4) 0.2417(4)
O1B_2 O -0.2061(2) -0.0094(4) 0.2556(4)
C9 C 0.2085(5) -0.1014(8) 1.1788(8)
C10 C 0.3032(7) 0.0133(8) 1.3580(8)
H6 H 0.2872 0.0716 1.4300
H7 H 0.3641 0.0392 1.3433
C11 C 0.2990(10) -0.1401(10) 1.3930(10)
H8 H 0.3603 -0.1812 1.4136
H9 H 0.2691 -0.1542 1.4709
N4 N 0.2452(5) -0.1966(7) 1.2699(8)
H10 H 0.2373 -0.2848 1.2560
N5 N 0.2363(6) 0.0235(7) 1.2352(7)
H11 H 0.2151 0.1018 1.1996
O3 O 0.1589(5) -0.1197(8) 1.0679(6)
loop_
_geom_bond_atom_site_label_1
_geom_bond_atom_site_label_2
_geom_bond_site_symmetry_1
_geom_bond_site_symmetry_2
Zn1 N1 1_555 1_555
C1 C2 1_555 1_555
C2 C3 1_555 1_555
C3 H1 1_555 1_555
C4 C3 1_555 1_555
C5 C2 1_555 1_555
H2 C5 1_555 1_555
C6 H3 1_555 1_555
C7 H4 1_555 1_555
N1 C6 1_555 1_555
N2 C7 1_555 1_555
N3 C6 1_555 1_555
O1 Zn1 1_555 1_555
O2 C1 1_555 1_555
C8 C5 1_555 1_555
H5 C8 1_555 1_555
C9 N4 1_555 1_555
C10 H6 1_555 1_555
H7 C10 1_555 1_555
C11 C10 1_555 1_555
H8 C11 1_555 1_555
H9 C11 1_555 1_555
N4 C11 1_555 1_555
H10 N4 1_555 1_555
N5 C9 1_555 1_555
H11 N5 1_555 1_555
O3 C9 1_555 1_555
C1B C2B 1_555 1_555
C2B C3B 1_555 1_555
C3B H1B 1_555 1_555
C4B C4 1_555 1_555
C5B C2B 1_555 1_555
H2B C5B 1_555 1_555
O1B C1B 1_555 1_555
O2B C1B 1_555 1_555
C8B C4 1_555 1_555
H5B C8B 1_555 1_555
Zn1B N2 1_555 1_555
C6B H3B 1_555 1_555
C7B H4B 1_555 1_555
N1B Zn1B 1_555 1_555
N2B Zn1 1_555 1_555
N3B C6B 1_555 1_555
Zn1A N3 1_555 1_555
Zn1B_2 O1B 1_555 1_555
Zn1C N3B 1_555 1_555
N3A Zn1 1_555 1_555
N3C Zn1B 1_555 1_555
O1B_2 Zn1B 1_555 1_555
C1 O1 1_555 1_555
C7 N3 1_555 1_555
N1 N2 1_555 1_555
C8 C4B 1_555 1_555
C10 N5 1_555 1_555
C3B C4B 1_555 1_555
C5B C8B 1_555 1_555
C6B N1B 1_555 1_555
C7B N2B 1_555 1_555
C7B N3B 1_555 1_555
N1B N2B 1_555 1_555

#END
