
#######################################################################
#
#                 Cambridge Crystallographic Data Centre
#                                CCDC 
#
#######################################################################
#
# If this CIF has been generated from an entry in the Cambridge 
# Structural Database, then it will include bibliographic, chemical, 
# crystal, experimental, refinement or atomic coordinate data resulting 
# from the CCDC's data processing and validation procedures.
#
#######################################################################

data_ZUTPEL
_symmetry_cell_setting           monoclinic
_symmetry_space_group_name_H-M   'C 2/c'
_symmetry_Int_Tables_number      15
_space_group_name_Hall           '-C 2yn'
loop_
_symmetry_equiv_pos_site_id
_symmetry_equiv_pos_as_xyz
1 x,y,z
2 -x,y,1/2-z
3 1/2+x,1/2+y,z
4 1/2-x,1/2+y,1/2-z
5 -x,-y,-z
6 x,-y,1/2+z
7 1/2-x,1/2-y,-z
8 1/2+x,1/2-y,1/2+z
_cell_length_a                   22.861(10)
_cell_length_b                   18.124(8)
_cell_length_c                   8.241(4)
_cell_angle_alpha                90
_cell_angle_beta                 108.35(5)
_cell_angle_gamma                90
_cell_volume                     3240.89
loop_
_atom_site_label
_atom_site_type_symbol
_atom_site_fract_x
_atom_site_fract_y
_atom_site_fract_z
Pb1 Pb 0.59427(2) 0.42408(2) 0.36279(2)
O1 O 0.63862(16) 0.4774(2) 0.1211(5)
O2 O 0.69606(15) 0.4141(2) 0.3408(5)
C1 C 0.6887(2) 0.4462(3) 0.2011(7)
C2 C 0.7385(2) 0.4469(3) 0.1221(7)
H1 H 0.7276 0.4658 0.0089
C3 C 0.7971(3) 0.4244(3) 0.1895(8)
C4 C 0.8398(3) 0.4257(4) 0.0836(10)
H2 H 0.8560 0.3759 0.0786
H3 H 0.8740 0.4595 0.1353
H4 H 0.8173 0.4424 -0.0324
C5 C 0.8264(3) 0.3972(4) 0.3684(8)
H5 H 0.7972 0.4023 0.4330
H6 H 0.8635 0.4262 0.4236
H7 H 0.8376 0.3451 0.3656
O3 O 0.58993(16) 0.3080(2) 0.2199(5)
O4 O 0.50790(17) 0.3653(2) 0.0477(5)
C6 C 0.5396(2) 0.3071(3) 0.0975(7)
C7 C 0.5159(2) 0.2371(3) 0.0118(7)
H8 H 0.4837 0.2406 -0.0940
C8 C 0.5347(3) 0.1688(3) 0.0662(8)
C9 C 0.5020(3) 0.1033(4) -0.0313(12)
H9 H 0.4788 0.0785 0.0347
H10 H 0.5322 0.0691 -0.0511
H11 H 0.4735 0.1195 -0.1413
C10 C 0.5860(3) 0.1503(4) 0.2251(9)
H12 H 0.6256 0.1597 0.2065
H13 H 0.5833 0.0982 0.2532
H14 H 0.5826 0.1811 0.3196
N1 N 0.65686(18) 0.3411(2) 0.6229(5)
C11 C 0.7108(3) 0.3096(3) 0.6315(7)
H15 H 0.7240 0.3117 0.5333
C12 C 0.7486(2) 0.2739(3) 0.7765(7)
H16 H 0.7868 0.2534 0.7760
C13 C 0.7303(2) 0.2684(3) 0.9214(6)
C14 C 0.6732(2) 0.2985(3) 0.9098(7)
H17 H 0.6574 0.2942 1.0032
C15 C 0.6391(2) 0.3347(3) 0.7618(7)
H18 H 0.6009 0.3561 0.7593
N1F N 0.84314(18) 0.1589(2) 1.3771(5)
C11F C 0.7892(3) 0.1904(3) 1.3685(7)
H15F H 0.7760 0.1883 1.4667
C12F C 0.7514(2) 0.2261(3) 1.2235(7)
H16F H 0.7132 0.2466 1.2240
C13F C 0.7697(2) 0.2316(3) 1.0786(6)
C14F C 0.8268(2) 0.2015(3) 1.0902(7)
H17F H 0.8426 0.2058 0.9968
C15F C 0.8609(2) 0.1653(3) 1.2382(7)
H18F H 0.8991 0.1439 1.2407
Pb1A Pb 0.40573(2) 0.42408(2) 0.13721(2)
O1A O 0.36138(16) 0.4774(2) 0.3789(5)
O2A O 0.30394(15) 0.4141(2) 0.1592(5)
C1A C 0.3113(2) 0.4462(3) 0.2989(7)
C2A C 0.2615(2) 0.4469(3) 0.3779(7)
H1A H 0.2724 0.4658 0.4911
C3A C 0.2029(3) 0.4244(3) 0.3105(8)
C4A C 0.1602(3) 0.4257(4) 0.4164(10)
H2A H 0.1440 0.3759 0.4214
H3A H 0.1260 0.4595 0.3647
H4A H 0.1827 0.4424 0.5324
C5A C 0.1736(3) 0.3972(4) 0.1316(8)
H5A H 0.2028 0.4023 0.0670
H6A H 0.1365 0.4262 0.0764
H7A H 0.1624 0.3451 0.1344
O3A O 0.41007(16) 0.3080(2) 0.2801(5)
O4A O 0.49210(17) 0.3653(2) 0.4523(5)
C6A C 0.4604(2) 0.3071(3) 0.4025(7)
C7A C 0.4841(2) 0.2371(3) 0.4882(7)
H8A H 0.5163 0.2406 0.5940
C8A C 0.4653(3) 0.1688(3) 0.4338(8)
C9A C 0.4980(3) 0.1033(4) 0.5313(12)
H9A H 0.5212 0.0785 0.4653
H10A H 0.4678 0.0691 0.5511
H11A H 0.5265 0.1195 0.6413
C10A C 0.4140(3) 0.1503(4) 0.2749(9)
H12A H 0.3744 0.1597 0.2935
H13A H 0.4167 0.0982 0.2468
H14A H 0.4174 0.1811 0.1804
Pb1D Pb 0.40573(2) 0.57592(2) 0.63721(2)
Pb1E Pb 0.59427(2) 0.57592(2) -0.13721(2)
Pb1F Pb 0.90573(2) 0.07592(2) 1.63721(2)
O1D O 0.36138(16) 0.5226(2) -0.1211(5)
O1E O 0.63862(16) 0.5226(2) 0.6211(5)
N1A N 0.34314(18) 0.3411(2) -0.1229(5)
O5 O 0.5000 0.4515(3) -0.2500
H19 H 0.508(3) 0.428(3) -0.158(4)
H19A H 0.492(3) 0.428(3) -0.342(4)
loop_
_geom_bond_atom_site_label_1
_geom_bond_atom_site_label_2
_geom_bond_site_symmetry_1
_geom_bond_site_symmetry_2
Pb1 O1 1_555 1_555
O1 C1 1_555 1_555
O2 Pb1 1_555 1_555
C1 O2 1_555 1_555
C2 C1 1_555 1_555
H1 C2 1_555 1_555
C3 C2 1_555 1_555
C4 C3 1_555 1_555
H2 C4 1_555 1_555
H3 C4 1_555 1_555
H4 C4 1_555 1_555
C5 C3 1_555 1_555
H5 C5 1_555 1_555
H6 C5 1_555 1_555
H7 C5 1_555 1_555
O3 Pb1 1_555 1_555
O4 Pb1 1_555 1_555
C6 O3 1_555 1_555
C7 C6 1_555 1_555
H8 C7 1_555 1_555
C8 C7 1_555 1_555
C9 C8 1_555 1_555
H9 C9 1_555 1_555
H10 C9 1_555 1_555
H11 C9 1_555 1_555
C10 C8 1_555 1_555
H12 C10 1_555 1_555
H13 C10 1_555 1_555
H14 C10 1_555 1_555
N1 Pb1 1_555 1_555
C11 N1 1_555 1_555
H15 C11 1_555 1_555
C12 C11 1_555 1_555
H16 C12 1_555 1_555
C13 C12 1_555 1_555
C14 C13 1_555 1_555
H17 C14 1_555 1_555
C15 N1 1_555 1_555
H18 C15 1_555 1_555
O5 H19 1_555 1_555
N1F C11F 1_555 1_555
C11F H15F 1_555 1_555
C12F C11F 1_555 1_555
H16F C12F 1_555 1_555
C13F C13 1_555 1_555
C14F C13F 1_555 1_555
H17F C14F 1_555 1_555
C15F N1F 1_555 1_555
H18F C15F 1_555 1_555
Pb1A O4 1_555 1_555
O1A Pb1A 1_555 1_555
O2A Pb1A 1_555 1_555
C1A O1A 1_555 1_555
C2A C1A 1_555 1_555
H1A C2A 1_555 1_555
C3A C2A 1_555 1_555
C4A C3A 1_555 1_555
H2A C4A 1_555 1_555
H3A C4A 1_555 1_555
H4A C4A 1_555 1_555
C5A C3A 1_555 1_555
H5A C5A 1_555 1_555
H6A C5A 1_555 1_555
H7A C5A 1_555 1_555
O3A Pb1A 1_555 1_555
O4A Pb1 1_555 1_555
C6A O3A 1_555 1_555
C7A C6A 1_555 1_555
H8A C7A 1_555 1_555
C8A C7A 1_555 1_555
C9A C8A 1_555 1_555
H9A C9A 1_555 1_555
H10A C9A 1_555 1_555
H11A C9A 1_555 1_555
C10A C8A 1_555 1_555
H12A C10A 1_555 1_555
H13A C10A 1_555 1_555
H14A C10A 1_555 1_555
Pb1D O1A 1_555 1_555
Pb1E O1 1_555 1_555
Pb1F N1F 1_555 1_555
O1D Pb1A 1_555 1_555
O1E Pb1 1_555 1_555
N1A Pb1A 1_555 1_555
H19A O5 1_555 1_555
O4 C6 1_555 1_555
C14 C15 1_555 1_555
C12F C13F 1_555 1_555
C14F C15F 1_555 1_555
Pb1A O4A 1_555 1_555
O2A C1A 1_555 1_555
O4A C6A 1_555 1_555

#END
