
#######################################################################
#
#                 Cambridge Crystallographic Data Centre
#                                CCDC 
#
#######################################################################
#
# If this CIF has been generated from an entry in the Cambridge 
# Structural Database, then it will include bibliographic, chemical, 
# crystal, experimental, refinement or atomic coordinate data resulting 
# from the CCDC's data processing and validation procedures.
#
#######################################################################

data_ZUTQIQ
_symmetry_cell_setting           monoclinic
_symmetry_space_group_name_H-M   'P 21/c'
_symmetry_Int_Tables_number      14
_space_group_name_Hall           '-P 2ybc'
loop_
_symmetry_equiv_pos_site_id
_symmetry_equiv_pos_as_xyz
1 x,y,z
2 -x,1/2+y,1/2-z
3 -x,-y,-z
4 x,1/2-y,1/2+z
_cell_length_a                   16.9149(12)
_cell_length_b                   9.1324(9)
_cell_length_c                   18.185(2)
_cell_angle_alpha                90
_cell_angle_beta                 92.980(10)
_cell_angle_gamma                90
_cell_volume                     2805.3
loop_
_atom_site_label
_atom_site_type_symbol
_atom_site_fract_x
_atom_site_fract_y
_atom_site_fract_z
Cu1 Cu 0.81073 0.29310 0.50100
Mn1 Mn 0.78755 0.57256 0.75854
O1 O 0.87355 0.42348 0.56455
C1 C 0.83766 0.46072 0.62123
O2 O 0.86726 0.53495 0.67207
C2 C 0.75030 0.40755 0.62721
O3 O 0.70865 0.44981 0.67577
N1 N 0.73235 0.31379 0.57114
C3 C 0.66264 0.23464 0.55654
C4 C 0.59511 0.22732 0.59665
H1 H 0.59133 0.28410 0.63882
C5 C 0.53336 0.13538 0.57403
H2 H 0.48927 0.13108 0.60232
C6 C 0.53379 0.04936 0.51121
C7 C 0.60029 0.05889 0.46961
H3 H 0.60262 0.00371 0.42674
C8 C 0.66345 0.14976 0.49088
N2 N 0.73451 0.16914 0.45326
C9 C 0.75465 0.11446 0.38936
O4 O 0.71407 0.02774 0.34801
C10 C 0.83459 0.16628 0.37006
O5 O 0.85964 0.13639 0.30875
O6 O 0.87393 0.25181 0.41754
S1 S 0.67836 0.49010 0.36781
O7 O 0.71149 0.36776 0.41300
C11 C 0.71053 0.65351 0.41105
C12 C 0.57978 0.51412 0.39193
H4 H 0.55637 0.59221 0.36390
H5 H 0.55084 0.42657 0.38198
H6 H 0.57886 0.53657 0.44293
H7 H 0.69033 0.73491 0.38348
H8 H 0.76674 0.65668 0.41355
H9 H 0.69184 0.65717 0.45943
S2 S 0.91443 0.76187 0.81352
O8 O 0.83807 0.69784 0.78612
C13 C 0.90920 0.95114 0.79593
C14 C 0.90922 0.78498 0.90923
H10 H 0.95741 0.82607 0.92891
H11 H 0.90087 0.69270 0.93161
H12 H 0.86659 0.84864 0.91880
H13 H 0.95740 0.99614 0.81286
H14 H 0.86656 0.99236 0.82098
H15 H 0.90085 0.96704 0.74449
S3 S 0.89199 0.04155 0.55896
O9 O 0.85699 0.10848 0.62384
C15 C 0.83421 -0.11286 0.53451
C16 C 0.97305 -0.06475 0.59199
H16 H 0.85494 -0.15895 0.49286
H17 H 0.78116 -0.08321 0.52289
H18 H 0.83532 -0.17979 0.57451
H19 H 0.99715 -0.10975 0.55167
H20 H 0.95521 -0.13824 0.62421
H21 H 1.01048 -0.00370 0.61789
S4 S 0.60762 0.65389 0.69091
O10 O 0.68107 0.64656 0.73860
C17 C 0.62160 0.79158 0.62514
C18 C 0.53919 0.75887 0.73807
H22 H 0.49101 0.76609 0.70898
H23 H 0.52951 0.71308 0.78361
H24 H 0.56019 0.85410 0.74700
H25 H 0.57549 0.79959 0.59332
H26 H 0.66562 0.76718 0.59712
H27 H 0.63135 0.88231 0.64951
O1B O 0.12645 -0.42348 0.43545
C1B C 0.16234 -0.46072 0.37877
O2B O 0.13274 -0.53495 0.32793
C2B C 0.24970 -0.40755 0.37279
O3B O 0.29135 -0.44981 0.32423
N1B N 0.26765 -0.31379 0.42886
C3B C 0.33736 -0.23464 0.44346
C4B C 0.40489 -0.22732 0.40335
H1B H 0.40867 -0.28410 0.36118
C5B C 0.46664 -0.13538 0.42597
H2B H 0.51073 -0.13108 0.39768
C6B C 0.46621 -0.04936 0.48879
C7B C 0.39971 -0.05889 0.53039
H3B H 0.39738 -0.00371 0.57326
C8B C 0.33655 -0.14976 0.50912
N2B N 0.26549 -0.16914 0.54674
C9B C 0.24535 -0.11446 0.61064
O4B O 0.28593 -0.02774 0.65199
C10B C 0.16541 -0.16628 0.62994
O5B O 0.14036 -0.13639 0.69125
O6B O 0.12607 -0.25181 0.58246
Cu1B Cu 0.18927 -0.29310 0.49900
Mn1B Mn 0.21245 -0.57256 0.24146
S1B S 0.32164 -0.49010 0.63219
O7B O 0.28851 -0.36776 0.58700
C11B C 0.28947 -0.65351 0.58895
C12B C 0.42022 -0.51412 0.60807
H4B H 0.44363 -0.59221 0.63610
H5B H 0.44916 -0.42657 0.61802
H6B H 0.42114 -0.53657 0.55707
H7B H 0.30967 -0.73491 0.61652
H8B H 0.23326 -0.65668 0.58645
H9B H 0.30816 -0.65717 0.54057
S2B S 0.08557 -0.76187 0.18648
O8B O 0.16193 -0.69784 0.21388
C13B C 0.09080 -0.95114 0.20407
C14B C 0.09078 -0.78498 0.09077
H10B H 0.04259 -0.82607 0.07109
H11B H 0.09913 -0.69270 0.06839
H12B H 0.13341 -0.84864 0.08120
H13B H 0.04260 -0.99614 0.18714
H14B H 0.13344 -0.99236 0.17902
H15B H 0.09915 -0.96704 0.25551
S3B S 0.10801 -0.04155 0.44104
O9B O 0.14301 -0.10848 0.37616
C15B C 0.16579 0.11286 0.46549
C16B C 0.02695 0.06475 0.40801
H16B H 0.14506 0.15895 0.50714
H17B H 0.21884 0.08321 0.47711
H18B H 0.16468 0.17979 0.42549
H19B H 0.00285 0.10975 0.44833
H20B H 0.04479 0.13824 0.37579
H21B H -0.01048 0.00370 0.38211
S4B S 0.39238 -0.65389 0.30909
O10B O 0.31893 -0.64656 0.26140
C17B C 0.37840 -0.79158 0.37486
C18B C 0.46081 -0.75887 0.26193
H22B H 0.50899 -0.76609 0.29102
H23B H 0.47049 -0.71308 0.21639
H24B H 0.43981 -0.85410 0.25300
H25B H 0.42451 -0.79959 0.40668
H26B H 0.33438 -0.76718 0.40288
H27B H 0.36865 -0.88231 0.35049
Mn1A Mn 0.21245 0.07256 0.74146
Mn1C Mn 0.78755 -0.07256 0.25854
O4A O 0.28593 -0.47226 0.15199
O4C O 0.71407 0.47226 0.84801
O5A O 0.14036 -0.36361 0.19125
O5C O 0.85964 0.36361 0.80875
loop_
_geom_bond_atom_site_label_1
_geom_bond_atom_site_label_2
_geom_bond_site_symmetry_1
_geom_bond_site_symmetry_2
Cu1 O1 1_555 1_555
Mn1 O2 1_555 1_555
O1 C1 1_555 1_555
C1 O2 1_555 1_555
C2 C1 1_555 1_555
O3 Mn1 1_555 1_555
N1 Cu1 1_555 1_555
C3 N1 1_555 1_555
C4 C3 1_555 1_555
H1 C4 1_555 1_555
C5 C4 1_555 1_555
H2 C5 1_555 1_555
C6 C5 1_555 1_555
C7 C6 1_555 1_555
H3 C7 1_555 1_555
C8 C3 1_555 1_555
N2 Cu1 1_555 1_555
C9 N2 1_555 1_555
O4 C9 1_555 1_555
C10 C9 1_555 1_555
O5 C10 1_555 1_555
O6 Cu1 1_555 1_555
S1 O7 1_555 1_555
O7 Cu1 1_555 1_555
C11 S1 1_555 1_555
C12 S1 1_555 1_555
H4 C12 1_555 1_555
H5 C12 1_555 1_555
H6 C12 1_555 1_555
H7 C11 1_555 1_555
H8 C11 1_555 1_555
H9 C11 1_555 1_555
S2 O8 1_555 1_555
O8 Mn1 1_555 1_555
C13 S2 1_555 1_555
C14 S2 1_555 1_555
H10 C14 1_555 1_555
H11 C14 1_555 1_555
H12 C14 1_555 1_555
H13 C13 1_555 1_555
H14 C13 1_555 1_555
H15 C13 1_555 1_555
S3 Cu1 1_555 1_555
O9 S3 1_555 1_555
C15 S3 1_555 1_555
C16 S3 1_555 1_555
H16 C15 1_555 1_555
H17 C15 1_555 1_555
H18 C15 1_555 1_555
H19 C16 1_555 1_555
H20 C16 1_555 1_555
H21 C16 1_555 1_555
S4 O10 1_555 1_555
O10 Mn1 1_555 1_555
C17 S4 1_555 1_555
C18 S4 1_555 1_555
H22 C18 1_555 1_555
H23 C18 1_555 1_555
H24 C18 1_555 1_555
H25 C17 1_555 1_555
H26 C17 1_555 1_555
H27 C17 1_555 1_555
O1B C1B 1_555 1_555
C1B O2B 1_555 1_555
O2B Mn1B 1_555 1_555
C2B C1B 1_555 1_555
O3B C2B 1_555 1_555
N1B C2B 1_555 1_555
C3B N1B 1_555 1_555
C4B C3B 1_555 1_555
H1B C4B 1_555 1_555
C5B C4B 1_555 1_555
H2B C5B 1_555 1_555
C6B C6 1_555 1_555
C7B C6B 1_555 1_555
H3B C7B 1_555 1_555
C8B C3B 1_555 1_555
N2B C8B 1_555 1_555
C9B N2B 1_555 1_555
O4B C9B 1_555 1_555
C10B C9B 1_555 1_555
O5B C10B 1_555 1_555
O6B C10B 1_555 1_555
Cu1B O1B 1_555 1_555
Mn1B O3B 1_555 1_555
S1B O7B 1_555 1_555
O7B Cu1B 1_555 1_555
C11B S1B 1_555 1_555
C12B S1B 1_555 1_555
H4B C12B 1_555 1_555
H5B C12B 1_555 1_555
H6B C12B 1_555 1_555
H7B C11B 1_555 1_555
H8B C11B 1_555 1_555
H9B C11B 1_555 1_555
S2B O8B 1_555 1_555
O8B Mn1B 1_555 1_555
C13B S2B 1_555 1_555
C14B S2B 1_555 1_555
H10B C14B 1_555 1_555
H11B C14B 1_555 1_555
H12B C14B 1_555 1_555
H13B C13B 1_555 1_555
H14B C13B 1_555 1_555
H15B C13B 1_555 1_555
S3B Cu1B 1_555 1_555
O9B S3B 1_555 1_555
C15B S3B 1_555 1_555
C16B S3B 1_555 1_555
H16B C15B 1_555 1_555
H17B C15B 1_555 1_555
H18B C15B 1_555 1_555
H19B C16B 1_555 1_555
H20B C16B 1_555 1_555
H21B C16B 1_555 1_555
S4B O10B 1_555 1_555
O10B Mn1B 1_555 1_555
C17B S4B 1_555 1_555
C18B S4B 1_555 1_555
H22B C18B 1_555 1_555
H23B C18B 1_555 1_555
H24B C18B 1_555 1_555
H25B C17B 1_555 1_555
H26B C17B 1_555 1_555
H27B C17B 1_555 1_555
Mn1A O4B 1_555 1_555
Mn1C O4 1_555 1_555
O4A Mn1B 1_555 1_555
O4C Mn1 1_555 1_555
O5A Mn1B 1_555 1_555
O5C Mn1 1_555 1_555
C2 O3 1_555 1_555
C2 N1 1_555 1_555
C7 C8 1_555 1_555
C8 N2 1_555 1_555
C10 O6 1_555 1_555
O5 Mn1C 1_555 1_555
N1B Cu1B 1_555 1_555
C5B C6B 1_555 1_555
C7B C8B 1_555 1_555
N2B Cu1B 1_555 1_555
O5B Mn1A 1_555 1_555
O6B Cu1B 1_555 1_555

#END
