
#######################################################################
#
#                 Cambridge Crystallographic Data Centre
#                                CCDC 
#
#######################################################################
#
# If this CIF has been generated from an entry in the Cambridge 
# Structural Database, then it will include bibliographic, chemical, 
# crystal, experimental, refinement or atomic coordinate data resulting 
# from the CCDC's data processing and validation procedures.
#
#######################################################################

data_ZUZNIR01
_symmetry_cell_setting           monoclinic
_symmetry_space_group_name_H-M   'P 21/n'
_symmetry_Int_Tables_number      14
_space_group_name_Hall           '-P 2yn'
loop_
_symmetry_equiv_pos_site_id
_symmetry_equiv_pos_as_xyz
1 x,y,z
2 1/2-x,1/2+y,1/2-z
3 -x,-y,-z
4 1/2+x,1/2-y,1/2+z
_cell_length_a                   7.432(3)
_cell_length_b                   17.357(5)
_cell_length_c                   7.618(2)
_cell_angle_alpha                90
_cell_angle_beta                 116.592(19)
_cell_angle_gamma                90
_cell_volume                     878.748
loop_
_atom_site_label
_atom_site_type_symbol
_atom_site_fract_x
_atom_site_fract_y
_atom_site_fract_z
Cu1 Cu 0.0000 0.0000 0.0000
S1 S 0.34053(8) 0.39767(3) 0.05441(8)
O1 O 0.1577(2) 0.44196(10) 0.0083(2)
O2 O 0.5069(3) 0.42295(10) 0.2393(2)
O3 O 0.3980(3) 0.39713(10) -0.1055(3)
O4 O 0.2301(3) -0.05612(12) -0.0088(3)
H1 H 0.3509 -0.0582 0.0783
H2 H 0.2190 -0.0688 -0.1252
N1 N -0.1859(3) -0.07394(11) -0.2144(3)
H5 H -0.1370 -0.0761 -0.3035
H6 H -0.3099 -0.0497 -0.2739
C1 C 0.2878(4) 0.30119(13) 0.0887(3)
C2 C 0.4101(4) 0.24232(15) 0.0820(4)
H7 H 0.5159 0.2531 0.0522
C3 C 0.3741(4) 0.16685(13) 0.1202(4)
H8 H 0.4554 0.1270 0.1155
C4 C -0.2166(3) -0.15156(12) -0.1650(3)
C5 C -0.0908(4) -0.21015(14) -0.1675(4)
H9 H 0.0164 -0.1991 -0.1949
C6 C 0.1257(4) 0.28584(13) 0.1286(4)
H10 H 0.0419 0.3255 0.1294
Cu1A Cu 0.5000 0.5000 0.5000
Cu1A_2 Cu -0.5000 -0.5000 -0.5000
S1B S -0.34053(8) -0.39767(3) -0.05441(8)
O1B O -0.1577(2) -0.44196(10) -0.0083(2)
O2C O 0.0069(3) 0.07705(10) -0.2607(2)
O2A O -0.0069(3) -0.07705(10) 0.2607(2)
O2B O -0.5069(3) -0.42295(10) -0.2393(2)
O3B O -0.3980(3) -0.39713(10) 0.1055(3)
O4B O -0.2301(3) 0.05612(12) 0.0088(3)
H1B H -0.3509 0.0582 -0.0783
H2B H -0.2190 0.0688 0.1252
N1B N 0.1859(3) 0.07394(11) 0.2144(3)
H5B H 0.1370 0.0761 0.3035
H6B H 0.3099 0.0497 0.2739
C1B C -0.2878(4) -0.30119(13) -0.0887(3)
C2B C -0.4101(4) -0.24232(15) -0.0820(4)
H7B H -0.5159 -0.2531 -0.0522
C3B C -0.3741(4) -0.16685(13) -0.1202(4)
H8B H -0.4554 -0.1270 -0.1155
C4B C 0.2166(3) 0.15156(12) 0.1650(3)
C5B C 0.0908(4) 0.21015(14) 0.1675(4)
H9B H -0.0164 0.1991 0.1949
C6B C -0.1257(4) -0.28584(13) -0.1286(4)
H10B H -0.0419 -0.3255 -0.1294
O5 O -0.1092(3) -0.56719(13) 0.2409(3)
H3 H -0.1178 -0.5315 0.1539
H4 H -0.2227 -0.5745 0.2467
loop_
_geom_bond_atom_site_label_1
_geom_bond_atom_site_label_2
_geom_bond_site_symmetry_1
_geom_bond_site_symmetry_2
Cu1 O4 1_555 1_555
S1 O1 1_555 1_555
O2 S1 1_555 1_555
O3 S1 1_555 1_555
O4 H1 1_555 1_555
H2 O4 1_555 1_555
O5 H3 1_555 1_555
H4 O5 1_555 1_555
N1 Cu1 1_555 1_555
H5 N1 1_555 1_555
H6 N1 1_555 1_555
C1 S1 1_555 1_555
C2 C1 1_555 1_555
H7 C2 1_555 1_555
C3 C2 1_555 1_555
H8 C3 1_555 1_555
C4 N1 1_555 1_555
C5 C4 1_555 1_555
H9 C5 1_555 1_555
C6 C1 1_555 1_555
H10 C6 1_555 1_555
Cu1A O2 1_555 1_555
Cu1A_2 O2B 1_555 1_555
S1B O1B 1_555 1_555
O2C Cu1 1_555 1_555
O2A Cu1 1_555 1_555
O2B S1B 1_555 1_555
O3B S1B 1_555 1_555
O4B Cu1 1_555 1_555
H1B O4B 1_555 1_555
H2B O4B 1_555 1_555
N1B Cu1 1_555 1_555
H5B N1B 1_555 1_555
H6B N1B 1_555 1_555
C1B S1B 1_555 1_555
C2B C1B 1_555 1_555
H7B C2B 1_555 1_555
C3B C4 1_555 1_555
H8B C3B 1_555 1_555
C4B C3 1_555 1_555
C5B C6 1_555 1_555
H9B C5B 1_555 1_555
C6B C5 1_555 1_555
H10B C6B 1_555 1_555
N1B C4B 1_555 1_555
C1B C6B 1_555 1_555
C2B C3B 1_555 1_555
C4B C5B 1_555 1_555

#END
