
#######################################################################
#
#                 Cambridge Crystallographic Data Centre
#                                CCDC 
#
#######################################################################
#
# If this CIF has been generated from an entry in the Cambridge 
# Structural Database, then it will include bibliographic, chemical, 
# crystal, experimental, refinement or atomic coordinate data resulting 
# from the CCDC's data processing and validation procedures.
#
#######################################################################

data_ZZZBNA01
_symmetry_cell_setting           orthorhombic
_symmetry_space_group_name_H-M   'P c c a'
_symmetry_Int_Tables_number      54
_space_group_name_Hall           '-P 2a 2ac'
loop_
_symmetry_equiv_pos_site_id
_symmetry_equiv_pos_as_xyz
1 x,y,z
2 1/2-x,-y,z
3 -x,y,1/2-z
4 1/2+x,-y,1/2-z
5 -x,-y,-z
6 1/2+x,y,-z
7 x,-y,1/2+z
8 1/2-x,y,1/2+z
_cell_length_a                   9.7660(9)
_cell_length_b                   6.6155(6)
_cell_length_c                   10.5192(10)
_cell_angle_alpha                90
_cell_angle_beta                 90
_cell_angle_gamma                90
_cell_volume                     679.614
loop_
_atom_site_label
_atom_site_type_symbol
_atom_site_fract_x
_atom_site_fract_y
_atom_site_fract_z
Mn1 Mn 0.2500 0.5000 0.14108(2)
O1 O 0.06730(8) 0.68075(13) 0.10231(8)
O2 O 0.18709(9) 0.30102(14) 0.29254(8)
H1 H 0.2470 0.2970 0.3471
O3 O -0.13199(7) 0.67812(12) -0.00141(7)
C1 C -0.01871(10) 0.60430(15) 0.02907(10)
H2 H 0.1359(17) 0.202(3) 0.2816(16)
Mn1E Mn -0.2500 0.5000 -0.14108(2)
O1D O -0.06730(8) 0.31925(13) -0.10231(8)
O1A O 0.43270(8) 0.31925(13) 0.10231(8)
O2A O 0.31291(9) 0.69898(14) 0.29254(8)
H1A H 0.2530 0.7030 0.3471
O3D O 0.13199(7) 0.32188(12) 0.00141(7)
O3E O 0.36801(7) 0.67812(12) 0.00141(7)
C1D C 0.01871(10) 0.39570(15) -0.02907(10)
H2A H 0.3641(17) 0.798(3) 0.2816(16)
O4 O 0.0000 1.01007(16) 0.2500
H3 H 0.0253(19) 0.938(3) 0.1954(17)
H3B H -0.0253(19) 0.938(3) 0.3046(17)
loop_
_geom_bond_atom_site_label_1
_geom_bond_atom_site_label_2
_geom_bond_site_symmetry_1
_geom_bond_site_symmetry_2
Mn1 O1 1_555 1_555
O1 C1 1_555 1_555
O2 Mn1 1_555 1_555
H1 O2 1_555 1_555
O3 C1 1_555 1_555
C1 C1D 1_555 1_555
O4 H3 1_555 1_555
H2 O2 1_555 1_555
Mn1E O3 1_555 1_555
O1D Mn1E 1_555 1_555
O1A Mn1 1_555 1_555
O2A Mn1 1_555 1_555
H1A O2A 1_555 1_555
O3D Mn1 1_555 1_555
O3E Mn1 1_555 1_555
C1D O1D 1_555 1_555
H2A O2A 1_555 1_555
H3B O4 1_555 1_555
O3D C1D 1_555 1_555

#END
