
#######################################################################
#
#                 Cambridge Crystallographic Data Centre
#                                CCDC 
#
#######################################################################
#
# If this CIF has been generated from an entry in the Cambridge 
# Structural Database, then it will include bibliographic, chemical, 
# crystal, experimental, refinement or atomic coordinate data resulting 
# from the CCDC's data processing and validation procedures.
#
#######################################################################

data_ZZZBNA02
_symmetry_cell_setting           orthorhombic
_symmetry_space_group_name_H-M   'P c c a'
_symmetry_Int_Tables_number      54
_space_group_name_Hall           '-P 2a 2ac'
loop_
_symmetry_equiv_pos_site_id
_symmetry_equiv_pos_as_xyz
1 x,y,z
2 1/2-x,-y,z
3 -x,y,1/2-z
4 1/2+x,-y,1/2-z
5 -x,-y,-z
6 1/2+x,y,-z
7 x,-y,1/2+z
8 1/2-x,y,1/2+z
_cell_length_a                   9.747(2)
_cell_length_b                   6.5937(16)
_cell_length_c                   10.482(3)
_cell_angle_alpha                90
_cell_angle_beta                 90
_cell_angle_gamma                90
_cell_volume                     673.665
loop_
_atom_site_label
_atom_site_type_symbol
_atom_site_fract_x
_atom_site_fract_y
_atom_site_fract_z
Mn1 Mn 0.2500 0.5000 0.14105(8)
C1 C -0.0188(4) 0.6040(6) 0.0288(3)
O1 O 0.0678(3) 0.6811(4) 0.1023(3)
O2 O -0.1321(3) 0.6779(4) -0.0015(2)
O3 O 0.1866(4) 0.3008(5) 0.2920(3)
H1 H 0.132(5) 0.199(8) 0.279(5)
H2 H 0.238(5) 0.278(8) 0.349(5)
Mn1E Mn -0.2500 0.5000 -0.14105(8)
C1D C 0.0188(4) 0.3960(6) -0.0288(3)
O1D O -0.0678(3) 0.3189(4) -0.1023(3)
O1A O 0.4322(3) 0.3189(4) 0.1023(3)
O2D O 0.1321(3) 0.3221(4) 0.0015(2)
O2E O 0.3679(3) 0.6779(4) 0.0015(2)
O3A O 0.3134(4) 0.6992(5) 0.2920(3)
H1A H 0.368(5) 0.801(8) 0.279(5)
H2A H 0.262(5) 0.722(8) 0.349(5)
O4 O 1.0000 1.0094(6) 0.2500
H3 H 0.9862 0.9423 0.3184
H3B H 1.0138 0.9423 0.1816
loop_
_geom_bond_atom_site_label_1
_geom_bond_atom_site_label_2
_geom_bond_site_symmetry_1
_geom_bond_site_symmetry_2
Mn1 O1 1_555 1_555
C1 O1 1_555 1_555
O2 C1 1_555 1_555
O3 Mn1 1_555 1_555
H1 O3 1_555 1_555
H2 O3 1_555 1_555
O4 H3 1_555 1_555
Mn1E O2 1_555 1_555
C1D C1 1_555 1_555
O1D Mn1E 1_555 1_555
O1A Mn1 1_555 1_555
O2D Mn1 1_555 1_555
O2E Mn1 1_555 1_555
O3A Mn1 1_555 1_555
H1A O3A 1_555 1_555
H2A O3A 1_555 1_555
H3B O4 1_555 1_555
C1D O1D 1_555 1_555
C1D O2D 1_555 1_555

#END
