
#######################################################################
#
#                 Cambridge Crystallographic Data Centre
#                                CCDC 
#
#######################################################################
#
# If this CIF has been generated from an entry in the Cambridge 
# Structural Database, then it will include bibliographic, chemical, 
# crystal, experimental, refinement or atomic coordinate data resulting 
# from the CCDC's data processing and validation procedures.
#
#######################################################################

data_ZZZBQY01
_symmetry_cell_setting           monoclinic
_symmetry_space_group_name_H-M   'P 21/c'
_symmetry_Int_Tables_number      14
_space_group_name_Hall           '-P 2ybc'
loop_
_symmetry_equiv_pos_site_id
_symmetry_equiv_pos_as_xyz
1 x,y,z
2 -x,1/2+y,1/2-z
3 -x,-y,-z
4 x,1/2-y,1/2+z
_cell_length_a                   10.604(1)
_cell_length_b                   4.556(3)
_cell_length_c                   19.183(2)
_cell_angle_alpha                90
_cell_angle_beta                 101.41(1)
_cell_angle_gamma                90
_cell_volume                     908.45
loop_
_atom_site_label
_atom_site_type_symbol
_atom_site_fract_x
_atom_site_fract_y
_atom_site_fract_z
O1 O 0.4027(2) 0.0837(6) 0.3402(1)
C1 C 0.3016(3) 0.1805(7) 0.3547(2)
C2 C 0.2198(3) 0.4030(7) 0.3146(2)
N1 N 0.2575(3) 0.5518(7) 0.2553(1)
O2 O 0.3606(2) 0.4913(6) 0.2388(1)
O3 O 0.1867(3) 0.7442(7) 0.2237(1)
C3 C 0.1059(3) 0.4979(7) 0.3314(2)
C4 C 0.0656(3) 0.3853(7) 0.3900(2)
N2 N -0.0544(2) 0.4822(6) 0.4060(1)
O4 O -0.1062(2) 0.7024(6) 0.3758(1)
O5 O -0.1018(2) 0.3433(6) 0.4492(1)
C5 C 0.1414(3) 0.1870(7) 0.4345(2)
C6 C 0.2528(3) 0.0933(7) 0.4173(2)
N3 N 0.3331(3) -0.0970(6) 0.4693(2)
O6 O 0.3932(3) -0.2980(6) 0.4487(2)
O7 O 0.3363(3) -0.0468(6) 0.5325(1)
Rb1 Rb 0.59870(3) 0.54510(8) 0.36102(2)
H1 H 0.053(3) 0.627(9) 0.300(2)
H2 H 0.116(3) 0.121(8) 0.478(2)
Rb1_2 Rb 0.59870(3) -0.45490(8) 0.36102(2)
Rb1A Rb 0.40130(3) 1.04510(8) 0.13898(2)
Rb1A_2 Rb 0.40130(3) 0.04510(8) 0.13898(2)
Rb1_3 Rb -0.40130(3) 0.54510(8) 0.36102(2)
Rb1B Rb 0.40130(3) -0.54510(8) 0.63898(2)
Rb1B_2 Rb 0.40130(3) 0.45490(8) 0.63898(2)
O1_2 O 0.4027(2) 1.0837(6) 0.3402(1)
O2A O 0.6394(2) 0.9913(6) 0.2612(1)
O2A_2 O 0.6394(2) -0.0087(6) 0.2612(1)
O4_2 O 0.8938(2) 0.7024(6) 0.3758(1)
O6_2 O 0.3932(3) 0.7020(6) 0.4487(2)
O7B O 0.6637(3) 0.0468(6) 0.4675(1)
O7B_2 O 0.6637(3) 1.0468(6) 0.4675(1)
loop_
_geom_bond_atom_site_label_1
_geom_bond_atom_site_label_2
_geom_bond_site_symmetry_1
_geom_bond_site_symmetry_2
O1 C1 1_555 1_555
C1 C2 1_555 1_555
C2 N1 1_555 1_555
N1 O2 1_555 1_555
O2 Rb1 1_555 1_555
O3 N1 1_555 1_555
C3 C2 1_555 1_555
C4 C3 1_555 1_555
N2 C4 1_555 1_555
O4 N2 1_555 1_555
O5 N2 1_555 1_555
C5 C4 1_555 1_555
C6 C1 1_555 1_555
N3 C6 1_555 1_555
O6 N3 1_555 1_555
O7 N3 1_555 1_555
Rb1 O1 1_555 1_555
H1 C3 1_555 1_555
H2 C5 1_555 1_555
Rb1_2 O1 1_555 1_555
Rb1A O2 1_555 1_555
Rb1A_2 O2 1_555 1_555
Rb1_3 O4 1_555 1_555
Rb1B O7 1_555 1_555
Rb1B_2 O7 1_555 1_555
O1_2 Rb1 1_555 1_555
O2A Rb1 1_555 1_555
O2A_2 Rb1 1_555 1_555
O4_2 Rb1 1_555 1_555
O6_2 Rb1 1_555 1_555
O7B Rb1 1_555 1_555
O7B_2 Rb1 1_555 1_555
C5 C6 1_555 1_555
O6 Rb1_2 1_555 1_555
Rb1_2 O2A_2 1_555 1_555
Rb1_2 O7B 1_555 1_555
Rb1A O2A 1_555 1_555
Rb1A_2 O2A_2 1_555 1_555

#END
