
#######################################################################
#
#                 Cambridge Crystallographic Data Centre
#                                CCDC 
#
#######################################################################
#
# If this CIF has been generated from an entry in the Cambridge 
# Structural Database, then it will include bibliographic, chemical, 
# crystal, experimental, refinement or atomic coordinate data resulting 
# from the CCDC's data processing and validation procedures.
#
#######################################################################

data_ZZZFKI01
_symmetry_cell_setting           monoclinic
_symmetry_space_group_name_H-M   'P 2/c'
_symmetry_Int_Tables_number      13
_space_group_name_Hall           '-P 2yc'
loop_
_symmetry_equiv_pos_site_id
_symmetry_equiv_pos_as_xyz
1 x,y,z
2 -x,y,1/2-z
3 -x,-y,-z
4 x,-y,1/2+z
_cell_length_a                   4.664(2)
_cell_length_b                   13.625(6)
_cell_length_c                   6.339(2)
_cell_angle_alpha                90
_cell_angle_beta                 115.82(3)
_cell_angle_gamma                90
_cell_volume                     362.609
loop_
_atom_site_label
_atom_site_type_symbol
_atom_site_fract_x
_atom_site_fract_y
_atom_site_fract_z
Mn1 Mn 0.0000 0.44717(5) 0.7500
O1 O 0.1976(6) 0.42976(17) 0.4867(4)
O2 O 0.6362(6) 0.34852(18) 0.5431(5)
C1 C 0.3412(8) 0.3542(2) 0.4611(6)
C2 C 0.1561(8) 0.2648(3) 0.3407(7)
C3 C 0.3050(9) 0.1757(3) 0.4243(8)
H1 H 0.5127 0.1753 0.5418
C4 C 0.1526(11) 0.0876(3) 0.3390(9)
H2 H 0.2554 0.0287 0.4006
O1A O -0.1976(6) 0.42976(17) 0.0133(4)
O2A O -0.6362(6) 0.34852(18) -0.0431(5)
C1A C -0.3412(8) 0.3542(2) 0.0389(6)
C2A C -0.1561(8) 0.2648(3) 0.1593(7)
C3A C -0.3050(9) 0.1757(3) 0.0757(8)
H1A H -0.5127 0.1753 -0.0418
C4A C -0.1526(11) 0.0876(3) 0.1610(9)
H2A H -0.2554 0.0287 0.0994
Mn1_2 Mn -1.0000 0.44717(5) -0.2500
Mn1_3 Mn 0.0000 0.44717(5) -0.2500
Mn1_4 Mn 1.0000 0.44717(5) 0.7500
Mn1B Mn 0.0000 0.55283(5) 0.2500
O1A_2 O -0.1976(6) 0.42976(17) 1.0133(4)
O1B O -0.1976(6) 0.57024(17) 0.5133(4)
O1C O 0.1976(6) 0.57024(17) 0.9867(4)
O2_2 O -0.3638(6) 0.34852(18) 0.5431(5)
O2A_2 O 0.3638(6) 0.34852(18) 0.9569(5)
loop_
_geom_bond_atom_site_label_1
_geom_bond_atom_site_label_2
_geom_bond_site_symmetry_1
_geom_bond_site_symmetry_2
Mn1 O1 1_555 1_555
O1 C1 1_555 1_555
O2 C1 1_555 1_555
C1 C2 1_555 1_555
C2 C3 1_555 1_555
C3 H1 1_555 1_555
C4 C3 1_555 1_555
H2 C4 1_555 1_555
O1A C1A 1_555 1_555
O2A C1A 1_555 1_555
C1A C2A 1_555 1_555
C2A C2 1_555 1_555
C3A C2A 1_555 1_555
H1A C3A 1_555 1_555
C4A C4 1_555 1_555
H2A C4A 1_555 1_555
Mn1_2 O2A 1_555 1_555
Mn1_3 O1A 1_555 1_555
Mn1_4 O2 1_555 1_555
Mn1B O1 1_555 1_555
O1A_2 Mn1 1_555 1_555
O1B Mn1 1_555 1_555
O1C Mn1 1_555 1_555
O2_2 Mn1 1_555 1_555
O2A_2 Mn1 1_555 1_555
O1A Mn1B 1_555 1_555
C3A C4A 1_555 1_555
Mn1B O1B 1_555 1_555

#END
