
#######################################################################
#
#                 Cambridge Crystallographic Data Centre
#                                CCDC 
#
#######################################################################
#
# If this CIF has been generated from an entry in the Cambridge 
# Structural Database, then it will include bibliographic, chemical, 
# crystal, experimental, refinement or atomic coordinate data resulting 
# from the CCDC's data processing and validation procedures.
#
#######################################################################

data_ZZZGSA02
_symmetry_cell_setting           monoclinic
_symmetry_space_group_name_H-M   'P 21/a'
_symmetry_Int_Tables_number      14
_space_group_name_Hall           '-P 2yab'
loop_
_symmetry_equiv_pos_site_id
_symmetry_equiv_pos_as_xyz
1 x,y,z
2 1/2-x,1/2+y,-z
3 -x,-y,-z
4 1/2+x,1/2-y,z
_cell_length_a                   10.0299(20)
_cell_length_b                   12.5418(9)
_cell_length_c                   8.0331(6)
_cell_angle_alpha                90
_cell_angle_beta                 92.782(14)
_cell_angle_gamma                90
_cell_volume                     1009.32
loop_
_atom_site_label
_atom_site_type_symbol
_atom_site_fract_x
_atom_site_fract_y
_atom_site_fract_z
Pb1 Pb 0.08156 0.05815 0.22075
C1 C 0.16710 0.13050 -0.15610
C2 C 0.25600 0.08250 -0.27090
C3 C 0.34100 0.14250 -0.36380
C4 C 0.34770 0.25160 -0.34550
C5 C 0.27060 0.30960 -0.22880
C6 C 0.17720 0.24180 -0.14310
O1 O 0.07970 0.07510 -0.07850
O2 O -0.27900 -0.40590 0.19410
O3 O 0.33080 0.10410 0.20480
N1 N 0.08800 0.29770 -0.03740
O4 O 0.05720 0.25740 0.09460
O5 O 0.04180 0.38440 -0.08110
N2 N 0.43760 0.30550 -0.44940
O6 O -0.45220 -0.40360 0.44290
O7 O 0.50210 0.25320 -0.54780
N3 N 0.26570 -0.03190 -0.29260
O8 O 0.35100 -0.06710 -0.37890
O9 O -0.19080 0.09250 0.21870
H1 H 0.40300 0.11000 -0.43700
Pb1B Pb -0.08156 -0.05815 -0.22075
O1B O -0.07970 -0.07510 0.07850
Pb1C Pb -0.41844 -0.55815 0.22075
O6A O -0.04780 0.09640 -0.44290
O2A O -0.22100 0.09410 -0.19410
O3B O -0.33080 -0.10410 -0.20480
O4B O -0.05720 -0.25740 -0.09460
N1B N -0.08800 -0.29770 0.03740
C6B C -0.17720 -0.24180 0.14310
C1B C -0.16710 -0.13050 0.15610
C2B C -0.25600 -0.08250 0.27090
C3B C -0.34100 -0.14250 0.36380
C4B C -0.34770 -0.25160 0.34550
C5B C -0.27060 -0.30960 0.22880
N2B N -0.43760 -0.30550 0.44940
O6C O 0.04780 -0.09640 0.44290
O2C O 0.22100 -0.09410 0.19410
O7B O -0.50210 -0.25320 0.54780
H1B H -0.40300 -0.11000 0.43700
N3B N -0.26570 0.03190 0.29260
O8B O -0.35100 0.06710 0.37890
O9B O 0.19080 -0.09250 -0.21870
O5B O -0.04180 -0.38440 0.08110
O2B O 0.27900 0.40590 -0.19410
Pb1A Pb 0.41844 0.55815 -0.22075
O6B O 0.45220 0.40360 -0.44290
loop_
_geom_bond_atom_site_label_1
_geom_bond_atom_site_label_2
_geom_bond_site_symmetry_1
_geom_bond_site_symmetry_2
Pb1 O1 1_555 1_555
C1 C2 1_555 1_555
C2 C3 1_555 1_555
C3 C4 1_555 1_555
C4 C5 1_555 1_555
C5 C6 1_555 1_555
C6 C1 1_555 1_555
O1 C1 1_555 1_555
O2 Pb1C 1_555 1_555
O3 Pb1 1_555 1_555
N1 C6 1_555 1_555
O4 Pb1 1_555 1_555
O5 N1 1_555 1_555
N2 C4 1_555 1_555
O6 Pb1C 1_555 1_555
O7 N2 1_555 1_555
N3 C2 1_555 1_555
O8 N3 1_555 1_555
O9 Pb1 1_555 1_555
H1 C3 1_555 1_555
Pb1B O1 1_555 1_555
O1B Pb1 1_555 1_555
O6A Pb1B 1_555 1_555
O2A Pb1B 1_555 1_555
O3B Pb1B 1_555 1_555
O4B Pb1B 1_555 1_555
N1B O4B 1_555 1_555
C6B N1B 1_555 1_555
C1B O1B 1_555 1_555
C2B C1B 1_555 1_555
C3B C2B 1_555 1_555
C4B C3B 1_555 1_555
C5B O2 1_555 1_555
N2B O6 1_555 1_555
O6C Pb1 1_555 1_555
O2C Pb1 1_555 1_555
O7B N2B 1_555 1_555
H1B C3B 1_555 1_555
N3B O9 1_555 1_555
O8B N3B 1_555 1_555
O9B N3 1_555 1_555
O5B N1B 1_555 1_555
O2B C5 1_555 1_555
Pb1A O2B 1_555 1_555
O6B N2 1_555 1_555
N1 O4 1_555 1_555
Pb1B O1B 1_555 1_555
Pb1B O9B 1_555 1_555
C6B C1B 1_555 1_555
C6B C5B 1_555 1_555
C2B N3B 1_555 1_555
C4B C5B 1_555 1_555
C4B N2B 1_555 1_555
Pb1A O6B 1_555 1_555

#END
