
#######################################################################
#
#                 Cambridge Crystallographic Data Centre
#                                CCDC 
#
#######################################################################
#
# If this CIF has been generated from an entry in the Cambridge 
# Structural Database, then it will include bibliographic, chemical, 
# crystal, experimental, refinement or atomic coordinate data resulting 
# from the CCDC's data processing and validation procedures.
#
#######################################################################

data_ZZZJIY03
_symmetry_cell_setting           monoclinic
_symmetry_space_group_name_H-M   'P 21/c'
_symmetry_Int_Tables_number      14
_space_group_name_Hall           '-P 2ybc'
loop_
_symmetry_equiv_pos_site_id
_symmetry_equiv_pos_as_xyz
1 x,y,z
2 -x,1/2+y,1/2-z
3 -x,-y,-z
4 x,1/2-y,1/2+z
_cell_length_a                   10.6691(7)
_cell_length_b                   12.9955(8)
_cell_length_c                   19.1193(14)
_cell_angle_alpha                90
_cell_angle_beta                 94.926(3)
_cell_angle_gamma                90
_cell_volume                     2641.11
loop_
_atom_site_label
_atom_site_type_symbol
_atom_site_fract_x
_atom_site_fract_y
_atom_site_fract_z
C1 C 0.4067(3) 0.9331(2) 0.33922(18)
C2 C 0.3256(3) 0.9526(2) 0.39619(18)
C3 C 0.3601(3) 1.0227(3) 0.4479(2)
H1 H 0.4342 1.0599 0.4461
C4 C 0.2857(4) 1.0385(3) 0.5023(2)
H2 H 0.3094 1.0863 0.5372
C5 C 0.1766(4) 0.9835(4) 0.5048(2)
H3 H 0.1264 0.9938 0.5416
C6 C 0.1413(4) 0.9142(3) 0.4539(3)
H4 H 0.0672 0.8772 0.4559
C7 C 0.2148(3) 0.8985(3) 0.3993(2)
H5 H 0.1898 0.8514 0.3642
C8 C 0.5078(3) 1.0264(2) 0.14594(18)
C9 C 0.4767(3) 1.0921(2) 0.08361(17)
C10 C 0.3818(3) 1.0657(3) 0.0339(2)
H6 H 0.3323 1.0083 0.0410
C11 C 0.3589(3) 1.1231(3) -0.0264(2)
H7 H 0.2946 1.1043 -0.0599
C12 C 0.4306(4) 1.2074(3) -0.0368(2)
H8 H 0.4154 1.2465 -0.0774
C13 C 0.5249(4) 1.2345(3) 0.0124(2)
H9 H 0.5734 1.2924 0.0052
C14 C 0.5491(3) 1.1778(2) 0.0723(2)
H10 H 0.6141 1.1968 0.1053
C15 C 0.7178(3) 0.7883(2) 0.26238(18)
C16 C 0.2523(3) 0.6792(2) 0.15674(16)
C17 C 0.8158(3) 0.7080(2) 0.27692(18)
C18 C 0.9359(4) 0.7342(3) 0.3027(3)
H11 H 0.9565 0.8030 0.3110
C19 C 1.0248(4) 0.6599(4) 0.3160(3)
H12 H 1.1059 0.6784 0.3332
C20 C 0.9965(4) 0.5588(3) 0.3044(3)
H13 H 1.0571 0.5082 0.3142
C21 C 0.8795(4) 0.5334(3) 0.2786(3)
H14 H 0.8595 0.4647 0.2697
C22 C 0.7887(3) 0.6079(3) 0.2650(2)
H15 H 0.7080 0.5889 0.2474
C23 C 0.1537(3) 0.7383(2) 0.11475(18)
C24 C 0.1845(3) 0.8205(3) 0.0743(2)
H16 H 0.2671 0.8441 0.0768
C25 C 0.0936(4) 0.8681(3) 0.0300(3)
H17 H 0.1154 0.9230 0.0023
C26 C -0.0272(4) 0.8356(3) 0.0265(3)
H18 H -0.0879 0.8679 -0.0037
C27 C -0.0606(3) 0.7545(3) 0.0677(3)
H19 H -0.1438 0.7327 0.0656
C28 C 0.0295(3) 0.7059(3) 0.1120(2)
H20 H 0.0071 0.6515 0.1399
O1 O 0.3733(2) 0.86471(17) 0.29484(13)
O2 O 0.4430(2) 0.94580(16) 0.15120(13)
O3 O 0.7436(2) 0.87745(18) 0.28262(16)
O4 O 0.22583(18) 0.59025(15) 0.17395(12)
O5 O 0.36107(19) 0.71565(15) 0.16956(12)
O6 O 0.5950(2) 1.05417(18) 0.18931(13)
O7 O 0.5052(2) 0.98539(18) 0.33856(13)
O8 O 0.6153(2) 0.76100(17) 0.23149(13)
Zn1 Zn 0.45561(3) 0.82767(3) 0.21286(2)
Zn2 Zn 0.64536(3) 1.00311(2) 0.28180(2)
O4A O 0.77417(18) 1.09025(15) 0.32605(12)
Zn2A Zn 0.35464(3) 0.50311(2) 0.21820(2)
loop_
_geom_bond_atom_site_label_1
_geom_bond_atom_site_label_2
_geom_bond_site_symmetry_1
_geom_bond_site_symmetry_2
C1 C2 1_555 1_555
C2 C3 1_555 1_555
C3 H1 1_555 1_555
C4 C3 1_555 1_555
H2 C4 1_555 1_555
C5 C4 1_555 1_555
H3 C5 1_555 1_555
C6 C5 1_555 1_555
H4 C6 1_555 1_555
C7 C2 1_555 1_555
H5 C7 1_555 1_555
C8 C9 1_555 1_555
C9 C10 1_555 1_555
C10 H6 1_555 1_555
C11 C10 1_555 1_555
H7 C11 1_555 1_555
C12 C11 1_555 1_555
H8 C12 1_555 1_555
C13 C12 1_555 1_555
H9 C13 1_555 1_555
C14 C9 1_555 1_555
H10 C14 1_555 1_555
C15 C17 1_555 1_555
C16 C23 1_555 1_555
C17 C18 1_555 1_555
C18 H11 1_555 1_555
C19 C18 1_555 1_555
H12 C19 1_555 1_555
C20 C19 1_555 1_555
H13 C20 1_555 1_555
C21 C20 1_555 1_555
H14 C21 1_555 1_555
C22 C17 1_555 1_555
H15 C22 1_555 1_555
C23 C24 1_555 1_555
C24 H16 1_555 1_555
C25 C24 1_555 1_555
H17 C25 1_555 1_555
C26 C25 1_555 1_555
H18 C26 1_555 1_555
C27 C26 1_555 1_555
H19 C27 1_555 1_555
C28 C23 1_555 1_555
H20 C28 1_555 1_555
O1 C1 1_555 1_555
O2 C8 1_555 1_555
O3 C15 1_555 1_555
O4 C16 1_555 1_555
O5 C16 1_555 1_555
O6 C8 1_555 1_555
O7 C1 1_555 1_555
O8 C15 1_555 1_555
Zn1 O1 1_555 1_555
Zn2 O3 1_555 1_555
O4A Zn2 1_555 1_555
Zn2A O4 1_555 1_555
C6 C7 1_555 1_555
C13 C14 1_555 1_555
C21 C22 1_555 1_555
C27 C28 1_555 1_555
O2 Zn1 1_555 1_555
O5 Zn1 1_555 1_555
O6 Zn2 1_555 1_555
O7 Zn2 1_555 1_555
O8 Zn1 1_555 1_555

#END
