
#######################################################################
#
#                 Cambridge Crystallographic Data Centre
#                                CCDC 
#
#######################################################################
#
# If this CIF has been generated from an entry in the Cambridge 
# Structural Database, then it will include bibliographic, chemical, 
# crystal, experimental, refinement or atomic coordinate data resulting 
# from the CCDC's data processing and validation procedures.
#
#######################################################################

data_ZZZJIY01
_symmetry_cell_setting           monoclinic
_symmetry_space_group_name_H-M   'P 21/c'
_symmetry_Int_Tables_number      14
_space_group_name_Hall           '-P 2ybc'
loop_
_symmetry_equiv_pos_site_id
_symmetry_equiv_pos_as_xyz
1 x,y,z
2 -x,1/2+y,1/2-z
3 -x,-y,-z
4 x,1/2-y,1/2+z
_cell_length_a                   10.771(6)
_cell_length_b                   13.076(6)
_cell_length_c                   19.265(10)
_cell_angle_alpha                90
_cell_angle_beta                 95.19(4)
_cell_angle_gamma                90
_cell_volume                     2702.19
loop_
_atom_site_label
_atom_site_type_symbol
_atom_site_fract_x
_atom_site_fract_y
_atom_site_fract_z
Zn1 Zn 0.35430 -0.50210 0.21790
Zn2 Zn 0.54420 -0.32670 0.28740
O1 O 0.36000 -0.71420 0.17120
O2 O 0.22510 -0.58840 0.17380
O3 O 0.38380 -0.25960 0.26870
O4 O 0.25390 -0.37750 0.21800
O5 O 0.49430 -0.48410 0.16250
O6 O 0.62870 -0.36540 0.20570
O7 O 0.40590 -0.55090 0.31150
O8 O 0.55670 -0.44820 0.34890
C1 C 0.25200 -0.67960 0.15610
C2 C 0.15160 -0.73780 0.11440
C3 C 0.18860 -0.82030 0.07250
C4 C 0.09620 -0.86960 0.02690
C5 C -0.02860 -0.83520 0.02490
C6 C -0.06210 -0.75410 0.06780
C7 C 0.02880 -0.70370 0.11210
C8 C 0.28220 -0.28680 0.23860
C9 C 0.18150 -0.20650 0.22340
C10 C 0.21400 -0.10710 0.23500
C11 C 0.11940 -0.02930 0.22010
C12 C 0.00040 -0.05840 0.19660
C13 C -0.03050 -0.15760 0.18440
C14 C 0.06250 -0.23430 0.19810
C15 C 0.49200 -0.52550 0.35390
C16 C 0.52380 -0.59260 0.41690
C17 C 0.62140 -0.56420 0.46660
C18 C 0.64550 -0.62210 0.52730
C19 C 0.57170 -0.71050 0.53790
C20 C 0.47330 -0.73730 0.48890
C21 C 0.44950 -0.67910 0.42840
C22 C 0.59310 -0.43500 0.16160
C23 C 0.67420 -0.45380 0.10340
C24 C 0.78690 -0.39760 0.10240
C25 C 0.86180 -0.41350 0.04700
C26 C 0.82690 -0.48380 -0.00520
C27 C 0.71340 -0.54100 -0.00150
C28 C 0.63690 -0.52440 0.05320
Zn2A Zn 0.45580 -0.82670 0.21260
O1A O 0.64000 -0.21420 0.32880
loop_
_geom_bond_atom_site_label_1
_geom_bond_atom_site_label_2
_geom_bond_site_symmetry_1
_geom_bond_site_symmetry_2
Zn1 O2 1_555 1_555
Zn2 O3 1_555 1_555
O1 C1 1_555 1_555
O2 C1 1_555 1_555
O3 C8 1_555 1_555
O4 Zn1 1_555 1_555
O5 Zn1 1_555 1_555
O6 Zn2 1_555 1_555
O7 Zn1 1_555 1_555
O8 Zn2 1_555 1_555
C1 C2 1_555 1_555
C2 C3 1_555 1_555
C3 C4 1_555 1_555
C4 C5 1_555 1_555
C5 C6 1_555 1_555
C6 C7 1_555 1_555
C7 C2 1_555 1_555
C8 O4 1_555 1_555
C9 C8 1_555 1_555
C10 C9 1_555 1_555
C11 C10 1_555 1_555
C12 C11 1_555 1_555
C13 C12 1_555 1_555
C14 C9 1_555 1_555
C15 O7 1_555 1_555
C16 C15 1_555 1_555
C17 C16 1_555 1_555
C18 C17 1_555 1_555
C19 C18 1_555 1_555
C20 C19 1_555 1_555
C21 C16 1_555 1_555
C22 O5 1_555 1_555
C23 C22 1_555 1_555
C24 C23 1_555 1_555
C25 C24 1_555 1_555
C26 C25 1_555 1_555
C27 C26 1_555 1_555
C28 C23 1_555 1_555
Zn2A O1 1_555 1_555
O1A Zn2 1_555 1_555
O6 C22 1_555 1_555
O8 C15 1_555 1_555
C13 C14 1_555 1_555
C20 C21 1_555 1_555
C27 C28 1_555 1_555

#END
