
#######################################################################
#
#                 Cambridge Crystallographic Data Centre
#                                CCDC 
#
#######################################################################
#
# If this CIF has been generated from an entry in the Cambridge 
# Structural Database, then it will include bibliographic, chemical, 
# crystal, experimental, refinement or atomic coordinate data resulting 
# from the CCDC's data processing and validation procedures.
#
#######################################################################

data_ZZZRZW06
_symmetry_cell_setting           orthorhombic
_symmetry_space_group_name_H-M   'P 21 21 21'
_symmetry_Int_Tables_number      19
_space_group_name_Hall           'P 2ac 2ab'
loop_
_symmetry_equiv_pos_site_id
_symmetry_equiv_pos_as_xyz
1 x,y,z
2 1/2-x,-y,1/2+z
3 -x,1/2+y,1/2-z
4 1/2+x,1/2-y,-z
_cell_length_a                   7.6059(2)
_cell_length_b                   7.7499(2)
_cell_length_c                   10.5854(4)
_cell_angle_alpha                90
_cell_angle_beta                 90
_cell_angle_gamma                90
_cell_volume                     623.956
loop_
_atom_site_label
_atom_site_type_symbol
_atom_site_fract_x
_atom_site_fract_y
_atom_site_fract_z
K1 K 0.83488(4) 0.67228(4) 0.53251(3)
O1 O 1.13881(13) 1.23086(13) 0.65243(10)
O2 O 1.03863(13) 0.96834(13) 0.60275(10)
O3 O 0.81351(13) 1.36693(12) 0.66803(10)
H1 H 0.8491 1.3817 0.7424
O4 O 0.81107(13) 1.08040(13) 0.85088(9)
H2 H 0.8575 0.9840 0.8651
O5 O 0.47555(13) 1.20713(14) 0.83502(10)
O6 O 0.44987(12) 1.11653(13) 0.63461(9)
H3 H 0.3465 1.1528 0.6430
C1 C 1.01616(18) 1.12409(19) 0.62835(13)
C2 C 0.82626(18) 1.19005(18) 0.63617(13)
H4 H 0.7710 1.1740 0.5513
C3 C 0.72563(18) 1.07673(19) 0.73089(13)
H5 H 0.7247 0.9552 0.6991
C4 C 0.53691(17) 1.14032(18) 0.74071(15)
O2C O 0.53863(13) 0.53166(13) 0.39725(10)
O3_2 O 0.81351(13) 0.36693(12) 0.66803(10)
O4A O 0.68893(13) 0.91960(13) 0.35088(9)
O4B O 1.18893(13) 0.58040(13) 0.64912(9)
O5A O 1.02445(13) 0.79287(14) 0.33502(10)
O5B O 0.52445(13) 0.70713(14) 0.66498(10)
O6C O 0.94987(12) 0.38347(13) 0.36539(9)
K1C K 1.33488(4) 0.82772(4) 0.46749(3)
K1_2 K 0.83488(4) 1.67228(4) 0.53251(3)
K1A K 0.66512(4) 1.32772(4) 1.03251(3)
K1B K 1.16512(4) 1.17228(4) 0.96749(3)
K1B_2 K 0.16512(4) 1.17228(4) 0.96749(3)
K1C_2 K 0.33488(4) 0.82772(4) 0.46749(3)
H1_2 H 0.8491 0.3817 0.7424
H2A H 0.6425 1.0160 0.3651
H2B H 1.1425 0.4840 0.6349
H3C H 0.8465 0.3472 0.3570
loop_
_geom_bond_atom_site_label_1
_geom_bond_atom_site_label_2
_geom_bond_site_symmetry_1
_geom_bond_site_symmetry_2
K1 O2 1_555 1_555
O1 C1 1_555 1_555
O2 C1 1_555 1_555
O3 H1 1_555 1_555
O4 H2 1_555 1_555
O5 C4 1_555 1_555
O6 H3 1_555 1_555
C1 C2 1_555 1_555
C2 O3 1_555 1_555
H4 C2 1_555 1_555
C3 O4 1_555 1_555
H5 C3 1_555 1_555
C4 O6 1_555 1_555
O2C K1 1_555 1_555
O3_2 K1 1_555 1_555
O4A K1 1_555 1_555
O4B K1 1_555 1_555
O5A K1 1_555 1_555
O5B K1 1_555 1_555
O6C K1 1_555 1_555
K1C O2 1_555 1_555
K1_2 O3 1_555 1_555
K1A O4 1_555 1_555
K1B O4 1_555 1_555
K1B_2 O5 1_555 1_555
K1C_2 O6 1_555 1_555
H1_2 O3_2 1_555 1_555
H2A O4A 1_555 1_555
H2B O4B 1_555 1_555
H3C O6C 1_555 1_555
O5 K1A 1_555 1_555
C2 C3 1_555 1_555
C3 C4 1_555 1_555
O2C K1C_2 1_555 1_555
O4A K1C_2 1_555 1_555
O4B K1C 1_555 1_555
O5A K1C 1_555 1_555
O5B K1C_2 1_555 1_555

#END
