
#######################################################################
#
#                 Cambridge Crystallographic Data Centre
#                                CCDC 
#
#######################################################################
#
# If this CIF has been generated from an entry in the Cambridge 
# Structural Database, then it will include bibliographic, chemical, 
# crystal, experimental, refinement or atomic coordinate data resulting 
# from the CCDC's data processing and validation procedures.
#
#######################################################################

data_ZZZSDW03
_symmetry_cell_setting           orthorhombic
_symmetry_space_group_name_H-M   'P 21 21 21'
_symmetry_Int_Tables_number      19
_space_group_name_Hall           'P 2ac 2ab'
loop_
_symmetry_equiv_pos_site_id
_symmetry_equiv_pos_as_xyz
1 x,y,z
2 1/2-x,-y,1/2+z
3 -x,1/2+y,1/2-z
4 1/2+x,1/2-y,-z
_cell_length_a                   10.9210(10)
_cell_length_b                   11.2040(10)
_cell_length_c                   14.9180(10)
_cell_angle_alpha                90
_cell_angle_beta                 90
_cell_angle_gamma                90
_cell_volume                     1825.35
loop_
_atom_site_label
_atom_site_type_symbol
_atom_site_fract_x
_atom_site_fract_y
_atom_site_fract_z
Mg1 Mg 0.54011(16) 0.29854(15) 0.37726(11)
Mg2 Mg 0.51038(16) 0.06700(15) 0.19412(12)
Mg3 Mg 0.29022(15) 0.25402(15) 0.54651(12)
O1 O 0.4513(3) 0.1359(3) 0.3147(2)
O2 O 0.3509(3) 0.2233(3) 0.4200(2)
O3 O 0.4986(4) 0.3885(3) 0.2582(2)
O4 O 0.5209(3) 0.2472(3) 0.1568(2)
O5 O 0.7074(3) 0.2147(3) 0.3305(2)
O6 O 0.6911(3) 0.0864(3) 0.2174(3)
O7 O 0.6065(3) 0.2148(3) 0.4938(2)
O8 O 0.4514(3) 0.1867(3) 0.5885(3)
O9 O 0.6993(3) 0.4072(3) 0.4264(3)
O10 O 0.6656(3) 0.5749(3) 0.3515(3)
O11 O 0.4511(3) 0.4633(3) 0.4214(2)
O12 O 0.3541(3) 0.4232(3) 0.5479(3)
C1 C 0.3550(5) 0.1431(4) 0.3618(4)
C2 C 0.2497(6) 0.0624(6) 0.3456(4)
H1 H 0.2799 -0.0178 0.3317
H2 H 0.2014 0.0925 0.2951
H3 H 0.1983 0.0593 0.3994
C3 C 0.4766(5) 0.3410(5) 0.1813(3)
C4 C 0.3910(6) 0.4067(5) 0.1197(4)
H4 H 0.3812 0.3615 0.0640
H5 H 0.4249 0.4857 0.1062
H6 H 0.3111 0.4159 0.1489
C5 C 0.7484(5) 0.1615(4) 0.2620(4)
C6 C 0.8769(6) 0.1924(6) 0.2311(4)
H7 H 0.8851 0.1744 0.1671
H8 H 0.9364 0.1451 0.2652
H9 H 0.8923 0.2775 0.2412
C7 C 0.5590(5) 0.1719(4) 0.5647(3)
C8 C 0.6362(6) 0.0959(6) 0.6233(5)
H10 H 0.6652 0.0266 0.5892
H11 H 0.5879 0.0687 0.6747
H12 H 0.7066 0.1421 0.6446
C9 C 0.7275(5) 0.5119(5) 0.4038(4)
C10 C 0.8358(5) 0.5689(5) 0.4465(5)
H13 H 0.8083 0.6249 0.4928
H14 H 0.8829 0.6122 0.4009
H15 H 0.8875 0.5074 0.4737
C11 C 0.4157(5) 0.4909(5) 0.4994(4)
C12 C 0.4486(7) 0.6121(5) 0.5352(4)
H16 H 0.4410 0.6121 0.6006
H17 H 0.3931 0.6719 0.5097
H18 H 0.5331 0.6313 0.5184
Mg2B Mg 0.48962(16) 0.56700(15) 0.30588(12)
Mg3C Mg 0.79022(15) 0.24598(15) 0.45349(12)
O3B O 0.5014(4) -0.1115(3) 0.2418(2)
O5C O 0.2074(3) 0.2853(3) 0.6695(2)
O7C O 0.1065(3) 0.2852(3) 0.5062(2)
O9C O 0.1993(3) 0.0928(3) 0.5736(3)
O10B O 0.3344(3) 0.0749(3) 0.1485(3)
O11B O 0.5489(3) -0.0367(3) 0.0786(2)
loop_
_geom_bond_atom_site_label_1
_geom_bond_atom_site_label_2
_geom_bond_site_symmetry_1
_geom_bond_site_symmetry_2
Mg1 O1 1_555 1_555
Mg2 O1 1_555 1_555
Mg3 O2 1_555 1_555
O1 C1 1_555 1_555
O2 Mg1 1_555 1_555
O3 Mg1 1_555 1_555
O4 Mg2 1_555 1_555
O5 Mg1 1_555 1_555
O6 Mg2 1_555 1_555
O7 Mg1 1_555 1_555
O8 Mg3 1_555 1_555
O9 Mg1 1_555 1_555
O10 C9 1_555 1_555
O11 Mg1 1_555 1_555
O12 Mg3 1_555 1_555
C1 O2 1_555 1_555
C2 C1 1_555 1_555
H1 C2 1_555 1_555
H2 C2 1_555 1_555
H3 C2 1_555 1_555
C3 O3 1_555 1_555
C4 C3 1_555 1_555
H4 C4 1_555 1_555
H5 C4 1_555 1_555
H6 C4 1_555 1_555
C5 O5 1_555 1_555
C6 C5 1_555 1_555
H7 C6 1_555 1_555
H8 C6 1_555 1_555
H9 C6 1_555 1_555
C7 O7 1_555 1_555
C8 C7 1_555 1_555
H10 C8 1_555 1_555
H11 C8 1_555 1_555
H12 C8 1_555 1_555
C9 O9 1_555 1_555
C10 C9 1_555 1_555
H13 C10 1_555 1_555
H14 C10 1_555 1_555
H15 C10 1_555 1_555
C11 O11 1_555 1_555
C12 C11 1_555 1_555
H16 C12 1_555 1_555
H17 C12 1_555 1_555
H18 C12 1_555 1_555
Mg2B O3 1_555 1_555
Mg3C O5 1_555 1_555
O3B Mg2 1_555 1_555
O5C Mg3 1_555 1_555
O7C Mg3 1_555 1_555
O9C Mg3 1_555 1_555
O10B Mg2 1_555 1_555
O11B Mg2 1_555 1_555
O4 C3 1_555 1_555
O6 C5 1_555 1_555
O7 Mg3C 1_555 1_555
O8 C7 1_555 1_555
O9 Mg3C 1_555 1_555
O10 Mg2B 1_555 1_555
O11 Mg2B 1_555 1_555
O12 C11 1_555 1_555

#END
